/*---------------------------------------------------------------------------*\
| =========                 |                                                 |
| \\      /  F ield         | OpenFOAM: The Open Source CFD Toolbox           |
|  \\    /   O peration     | Version:  2312                                  |
|   \\  /    A nd           | Website:  www.openfoam.com                      |
|    \\/     M anipulation  |                                                 |
\*---------------------------------------------------------------------------*/
Build  : _1d8f0d55f7-20231221 OPENFOAM=2312 version=v2312
Arch   : "LSB;label=32;scalar=64"
Exec   : adjointOptimisationFoam -parallel
Date   : Mar 12 2024
Time   : 20:43:52
Host   : DESKTOP
PID    : 27288
I/O    : uncollated
Case   : /home/user/OF2312/DTCHullDoubleBody_AdjointOpti
nProcs : 8
Hosts  :
(
    (DESKTOP 8)
)
Pstream initialized with:
    floatTransfer      : false
    nProcsSimpleSum    : 0
    nonBlockingExchange: 0 (tuning: 0)
    exchange algorithm : 0
    commsType          : nonBlocking
    polling iterations : 0
trapFpe: Floating point exception trapping enabled (FOAM_SIGFPE).
fileModificationChecking : Monitoring run-time modified files using timeStampMaster (fileModificationSkew 5, maxFileModificationPolls 20)
allowSystemOperations : Allowing user-supplied system call operations

// * * * * * * * * * * * * * * * * * * * * * * * * * * * * * * * * * * * * * //
Create time

Create mesh for time = 0

optimisationManager type : steadyOptimisation
designVariables type : shape
shapeDesignVariables type : volumetricBSplines
displacementMethod type : volumetricBSplinesMotionSolver
Selecting motion solver: volumetricBSplinesMotionSolver
NURBS3DVolume type : cartesian
Using knots 
11
(
0
0
0
0
0.25
0.5
0.75
1
1
1
1
)

Using knots 
11
(
0
0
0
0
0.25
0.5
0.75
1
1
1
1
)

Using knots 
11
(
0
0
0
0
0.25
0.5
0.75
1
1
1
1
)

controlPointsDefinition type : axisAligned
Writing control point positions to file
Control Points bounds 
	X1 : (6 6.4)
	X2 : (-0.15 0.15)
	X3 : (-0.1 0.3)

Initially found 3083 points inside control boxes
Mapping of mesh points to parametric space for box box ...
Found 0 to discard from morphing boxes
Keeping 3083 parameterized points in boxes
	Mapping completed in 0.54 seconds
	Max iterations per point needed to compute parametric coordinates : 4
	Max difference between original mesh points and parameterized ones 9.76785e-11
morphingBoxConstraint type : none
Selecting incompressible transport model Newtonian
Selecting turbulence model type RAS
Selecting RAS turbulence model kOmegaSST
Selecting patchDistMethod meshWave
RAS
{
    RASModel        kOmegaSST;
    turbulence      on;
    printCoeffs     on;
    alphaK1         0.85;
    alphaK2         1;
    alphaOmega1     0.5;
    alphaOmega2     0.856;
    gamma1          0.555556;
    gamma2          0.44;
    beta1           0.075;
    beta2           0.0828;
    betaStar        0.09;
    a1              0.31;
    b1              1;
    c1              10;
    F3              false;
    decayControl    false;
    kInf            0;
    omegaInf        0;
}

Creating references for RASModel variables : kOmegaSST
Allocating mean values of turbulence variables
Allocating Mean Primal Fields
No MRF models present

Found 1 adjoint solvers that allocate fields
Constructing objective functions 

Creating objective function : drag of type force
Selecting adjointRAS turbulence model adjointkOmegaSST
Updating primal-based fields of the adjoint turbulence model ...
ATCModel type standard
Zeroing ATC on 15627 cells

adjointSensitivity type : shapeFI
Found 0 adjoint solvers acting as single-sided constraints
Found 0 adjoint solvers acting as double-sided constraints
Found 1 active adjoint solvers
updateMethod type : conjugateGradient
lineSearch type : ArmijoConditions
stepUpdate type : bisection
No convergence criterion defined for optimsation
It will run for 600 optimisation cycles 

Feasibility threshold is 1e-06

Starting time loop


* * * * * * * * * * * * * * * * *
Optimisation cycle 1
* * * * * * * * * * * * * * * * *

Resetting mean fields to zero
Resetting mean turbulent fields to zero
Solving equations for solver op1

Iteration 1|500
Time = 0.002

smoothSolver:  Solving for Ux, Initial residual = 0.0701907, Final residual = 0.000268254, No Iterations 3
smoothSolver:  Solving for Uy, Initial residual = 0.548503, Final residual = 0.00104771, No Iterations 3
smoothSolver:  Solving for Uz, Initial residual = 0.564045, Final residual = 0.001734, No Iterations 3
GAMG:  Solving for p, Initial residual = 1, Final residual = 0.00975152, No Iterations 60
time step continuity errors : sum local = 8.19356e-08, global = 1.42529e-09, cumulative = 1.42529e-09
smoothSolver:  Solving for omega, Initial residual = 0.188597, Final residual = 0.000772626, No Iterations 3
smoothSolver:  Solving for k, Initial residual = 1, Final residual = 0.00435831, No Iterations 3

drag : 0.000880162
ExecutionTime = 1.62 s  ClockTime = 2 s

Iteration 2|500
Time = 0.004

smoothSolver:  Solving for Ux, Initial residual = 0.0457275, Final residual = 4.3018e-06, No Iterations 6
smoothSolver:  Solving for Uy, Initial residual = 0.423285, Final residual = 0.00126694, No Iterations 3
smoothSolver:  Solving for Uz, Initial residual = 0.484478, Final residual = 0.00170493, No Iterations 3
GAMG:  Solving for p, Initial residual = 0.271792, Final residual = 0.00264698, No Iterations 60
time step continuity errors : sum local = 4.33391e-08, global = 1.59272e-09, cumulative = 3.01801e-09
smoothSolver:  Solving for omega, Initial residual = 0.0948386, Final residual = 0.000445631, No Iterations 3
smoothSolver:  Solving for k, Initial residual = 0.292884, Final residual = 0.0014427, No Iterations 3

drag : 0.00142305
ExecutionTime = 2.28 s  ClockTime = 2 s

Iteration 3|500
Time = 0.006

smoothSolver:  Solving for Ux, Initial residual = 0.0428357, Final residual = 2.79302e-06, No Iterations 6
smoothSolver:  Solving for Uy, Initial residual = 0.339681, Final residual = 0.0028895, No Iterations 3
smoothSolver:  Solving for Uz, Initial residual = 0.325614, Final residual = 0.00200355, No Iterations 3
GAMG:  Solving for p, Initial residual = 0.110669, Final residual = 0.00108425, No Iterations 35
time step continuity errors : sum local = 2.13395e-08, global = 9.52823e-10, cumulative = 3.97083e-09
smoothSolver:  Solving for omega, Initial residual = 0.0540355, Final residual = 0.000278096, No Iterations 3
smoothSolver:  Solving for k, Initial residual = 0.149276, Final residual = 0.000796034, No Iterations 3

drag : 0.00181343
ExecutionTime = 2.79 s  ClockTime = 3 s

Iteration 4|500
Time = 0.008

smoothSolver:  Solving for Ux, Initial residual = 0.0354612, Final residual = 0.000284196, No Iterations 3
smoothSolver:  Solving for Uy, Initial residual = 0.240456, Final residual = 1.59614e-05, No Iterations 6
smoothSolver:  Solving for Uz, Initial residual = 0.209071, Final residual = 4.87647e-05, No Iterations 6
GAMG:  Solving for p, Initial residual = 0.175311, Final residual = 0.0017336, No Iterations 65
time step continuity errors : sum local = 3.09094e-08, global = 1.11381e-09, cumulative = 5.08464e-09
smoothSolver:  Solving for omega, Initial residual = 0.032685, Final residual = 0.000172777, No Iterations 3
smoothSolver:  Solving for k, Initial residual = 0.0875668, Final residual = 0.000490586, No Iterations 3

drag : 0.00197338
ExecutionTime = 3.49 s  ClockTime = 4 s

Iteration 5|500
Time = 0.01

smoothSolver:  Solving for Ux, Initial residual = 0.0233133, Final residual = 0.000144461, No Iterations 3
smoothSolver:  Solving for Uy, Initial residual = 0.147544, Final residual = 1.04142e-05, No Iterations 6
smoothSolver:  Solving for Uz, Initial residual = 0.138199, Final residual = 3.89669e-05, No Iterations 6
GAMG:  Solving for p, Initial residual = 0.289965, Final residual = 0.00285596, No Iterations 68
time step continuity errors : sum local = 3.83199e-08, global = -1.38002e-09, cumulative = 3.70462e-09
smoothSolver:  Solving for omega, Initial residual = 0.0204249, Final residual = 0.000103228, No Iterations 3
smoothSolver:  Solving for k, Initial residual = 0.0541904, Final residual = 0.000303842, No Iterations 3

drag : 0.00190601
ExecutionTime = 4.2 s  ClockTime = 4 s

Iteration 6|500
Time = 0.012

smoothSolver:  Solving for Ux, Initial residual = 0.011167, Final residual = 4.95323e-05, No Iterations 3
smoothSolver:  Solving for Uy, Initial residual = 0.0820578, Final residual = 7.60108e-06, No Iterations 6
smoothSolver:  Solving for Uz, Initial residual = 0.0887979, Final residual = 3.02962e-05, No Iterations 6
GAMG:  Solving for p, Initial residual = 0.426012, Final residual = 0.00422456, No Iterations 63
time step continuity errors : sum local = 4.13902e-08, global = 1.53905e-09, cumulative = 5.24367e-09
smoothSolver:  Solving for omega, Initial residual = 0.0131796, Final residual = 5.8789e-05, No Iterations 3
smoothSolver:  Solving for k, Initial residual = 0.0344572, Final residual = 0.000181948, No Iterations 3

drag : 0.00168962
ExecutionTime = 4.89 s  ClockTime = 5 s

Iteration 7|500
Time = 0.014

smoothSolver:  Solving for Ux, Initial residual = 0.0091539, Final residual = 5.46315e-05, No Iterations 3
smoothSolver:  Solving for Uy, Initial residual = 0.0631929, Final residual = 0.000446724, No Iterations 3
smoothSolver:  Solving for Uz, Initial residual = 0.0779311, Final residual = 0.000625348, No Iterations 3
GAMG:  Solving for p, Initial residual = 0.309246, Final residual = 0.00305568, No Iterations 51
time step continuity errors : sum local = 4.11695e-08, global = 1.65411e-09, cumulative = 6.89778e-09
smoothSolver:  Solving for omega, Initial residual = 0.00877956, Final residual = 3.15544e-05, No Iterations 3
smoothSolver:  Solving for k, Initial residual = 0.0223146, Final residual = 0.000103283, No Iterations 3

drag : 0.00143782
ExecutionTime = 5.51 s  ClockTime = 6 s

Iteration 8|500
Time = 0.016

smoothSolver:  Solving for Ux, Initial residual = 0.014122, Final residual = 7.49626e-05, No Iterations 3
smoothSolver:  Solving for Uy, Initial residual = 0.0911302, Final residual = 5.3124e-06, No Iterations 6
smoothSolver:  Solving for Uz, Initial residual = 0.0978977, Final residual = 0.000930923, No Iterations 3
GAMG:  Solving for p, Initial residual = 0.25207, Final residual = 0.00248479, No Iterations 35
time step continuity errors : sum local = 3.83215e-08, global = -1.58006e-09, cumulative = 5.31772e-09
smoothSolver:  Solving for omega, Initial residual = 0.00600517, Final residual = 1.60034e-05, No Iterations 3
smoothSolver:  Solving for k, Initial residual = 0.0147112, Final residual = 5.52628e-05, No Iterations 3

drag : 0.00125136
ExecutionTime = 6.01 s  ClockTime = 6 s

Iteration 9|500
Time = 0.018

smoothSolver:  Solving for Ux, Initial residual = 0.0147785, Final residual = 7.24405e-05, No Iterations 3
smoothSolver:  Solving for Uy, Initial residual = 0.107573, Final residual = 5.10196e-06, No Iterations 6
smoothSolver:  Solving for Uz, Initial residual = 0.105695, Final residual = 0.00105084, No Iterations 3
GAMG:  Solving for p, Initial residual = 0.215962, Final residual = 0.00215135, No Iterations 39
time step continuity errors : sum local = 3.2904e-08, global = -1.58323e-09, cumulative = 3.7345e-09
smoothSolver:  Solving for omega, Initial residual = 0.00421019, Final residual = 7.83081e-06, No Iterations 3
smoothSolver:  Solving for k, Initial residual = 0.00991321, Final residual = 2.82322e-05, No Iterations 3

drag : 0.00118563
ExecutionTime = 6.54 s  ClockTime = 7 s

Iteration 10|500
Time = 0.02

smoothSolver:  Solving for Ux, Initial residual = 0.0119638, Final residual = 5.59473e-05, No Iterations 3
smoothSolver:  Solving for Uy, Initial residual = 0.100979, Final residual = 4.91061e-06, No Iterations 6
smoothSolver:  Solving for Uz, Initial residual = 0.0948187, Final residual = 1.44638e-05, No Iterations 6
GAMG:  Solving for p, Initial residual = 0.208327, Final residual = 0.00201017, No Iterations 51
time step continuity errors : sum local = 2.67839e-08, global = -1.22648e-09, cumulative = 2.50802e-09
smoothSolver:  Solving for omega, Initial residual = 0.00301588, Final residual = 3.99823e-06, No Iterations 3
smoothSolver:  Solving for k, Initial residual = 0.00683184, Final residual = 1.38508e-05, No Iterations 3

drag : 0.00125
ExecutionTime = 7.15 s  ClockTime = 7 s

Iteration 11|500
Time = 0.022

smoothSolver:  Solving for Ux, Initial residual = 0.00788293, Final residual = 3.79561e-05, No Iterations 3
smoothSolver:  Solving for Uy, Initial residual = 0.0833507, Final residual = 5.4352e-06, No Iterations 6
smoothSolver:  Solving for Uz, Initial residual = 0.076929, Final residual = 1.37513e-05, No Iterations 6
GAMG:  Solving for p, Initial residual = 0.269192, Final residual = 0.00267182, No Iterations 53
time step continuity errors : sum local = 2.7721e-08, global = -1.22195e-09, cumulative = 1.28607e-09
smoothSolver:  Solving for omega, Initial residual = 0.00220301, Final residual = 2.49653e-06, No Iterations 3
smoothSolver:  Solving for k, Initial residual = 0.00481536, Final residual = 6.86033e-06, No Iterations 3

drag : 0.0014162
ExecutionTime = 7.77 s  ClockTime = 8 s

Iteration 12|500
Time = 0.024

smoothSolver:  Solving for Ux, Initial residual = 0.00582067, Final residual = 3.14471e-05, No Iterations 3
smoothSolver:  Solving for Uy, Initial residual = 0.0698854, Final residual = 6.94544e-06, No Iterations 6
smoothSolver:  Solving for Uz, Initial residual = 0.0606854, Final residual = 0.000544042, No Iterations 3
GAMG:  Solving for p, Initial residual = 0.361398, Final residual = 0.00356548, No Iterations 51
time step continuity errors : sum local = 2.69135e-08, global = -1.17552e-09, cumulative = 1.10547e-10
smoothSolver:  Solving for omega, Initial residual = 0.00163574, Final residual = 2.12748e-06, No Iterations 3
smoothSolver:  Solving for k, Initial residual = 0.00347858, Final residual = 3.76321e-06, No Iterations 3

drag : 0.00163465
ExecutionTime = 8.38 s  ClockTime = 9 s

Iteration 13|500
Time = 0.026

smoothSolver:  Solving for Ux, Initial residual = 0.00608006, Final residual = 3.29757e-05, No Iterations 3
smoothSolver:  Solving for Uy, Initial residual = 0.06174, Final residual = 0.000422781, No Iterations 3
smoothSolver:  Solving for Uz, Initial residual = 0.0514827, Final residual = 0.000374039, No Iterations 3
GAMG:  Solving for p, Initial residual = 0.378954, Final residual = 0.00373022, No Iterations 48
time step continuity errors : sum local = 2.4046e-08, global = -1.06477e-09, cumulative = -9.54226e-10
smoothSolver:  Solving for omega, Initial residual = 0.00123246, Final residual = 1.67918e-06, No Iterations 3
smoothSolver:  Solving for k, Initial residual = 0.00257075, Final residual = 3.21421e-06, No Iterations 3

drag : 0.00185405
ExecutionTime = 8.96 s  ClockTime = 9 s

Iteration 14|500
Time = 0.028

smoothSolver:  Solving for Ux, Initial residual = 0.00651733, Final residual = 3.39431e-05, No Iterations 3
smoothSolver:  Solving for Uy, Initial residual = 0.0562226, Final residual = 0.000352705, No Iterations 3
smoothSolver:  Solving for Uz, Initial residual = 0.044867, Final residual = 0.000291814, No Iterations 3
GAMG:  Solving for p, Initial residual = 0.299793, Final residual = 0.00291165, No Iterations 43
time step continuity errors : sum local = 2.08009e-08, global = 9.02875e-10, cumulative = -5.1351e-11
smoothSolver:  Solving for omega, Initial residual = 0.000940349, Final residual = 1.30893e-06, No Iterations 3
smoothSolver:  Solving for k, Initial residual = 0.00193828, Final residual = 2.53082e-06, No Iterations 3

drag : 0.00203414
ExecutionTime = 9.52 s  ClockTime = 10 s

Iteration 15|500
Time = 0.03

smoothSolver:  Solving for Ux, Initial residual = 0.00595253, Final residual = 3.17203e-05, No Iterations 3
smoothSolver:  Solving for Uy, Initial residual = 0.0515884, Final residual = 0.000369477, No Iterations 3
smoothSolver:  Solving for Uz, Initial residual = 0.0420504, Final residual = 0.000267403, No Iterations 3
GAMG:  Solving for p, Initial residual = 0.290305, Final residual = 0.00283505, No Iterations 43
time step continuity errors : sum local = 1.98424e-08, global = 9.02417e-10, cumulative = 8.51066e-10
smoothSolver:  Solving for omega, Initial residual = 0.000724432, Final residual = 1.04042e-06, No Iterations 3
smoothSolver:  Solving for k, Initial residual = 0.00148534, Final residual = 1.94016e-06, No Iterations 3

drag : 0.00215392
ExecutionTime = 10.07 s  ClockTime = 10 s

Iteration 16|500
Time = 0.032

smoothSolver:  Solving for Ux, Initial residual = 0.00471157, Final residual = 2.79878e-05, No Iterations 3
smoothSolver:  Solving for Uy, Initial residual = 0.0470769, Final residual = 0.000374577, No Iterations 3
smoothSolver:  Solving for Uz, Initial residual = 0.0398631, Final residual = 0.000233595, No Iterations 3
GAMG:  Solving for p, Initial residual = 0.305194, Final residual = 0.00291816, No Iterations 45
time step continuity errors : sum local = 1.8241e-08, global = 8.44354e-10, cumulative = 1.69542e-09
smoothSolver:  Solving for omega, Initial residual = 0.000562393, Final residual = 8.71573e-07, No Iterations 3
smoothSolver:  Solving for k, Initial residual = 0.00115258, Final residual = 1.50391e-06, No Iterations 3

drag : 0.00221128
ExecutionTime = 10.65 s  ClockTime = 11 s

Iteration 17|500
Time = 0.034

smoothSolver:  Solving for Ux, Initial residual = 0.00366726, Final residual = 2.33985e-05, No Iterations 3
smoothSolver:  Solving for Uy, Initial residual = 0.0462367, Final residual = 0.000345419, No Iterations 3
smoothSolver:  Solving for Uz, Initial residual = 0.0384757, Final residual = 0.000194345, No Iterations 3
GAMG:  Solving for p, Initial residual = 0.331686, Final residual = 0.00330168, No Iterations 45
time step continuity errors : sum local = 1.72679e-08, global = 8.08267e-10, cumulative = 2.50369e-09
smoothSolver:  Solving for omega, Initial residual = 0.000439525, Final residual = 7.20149e-07, No Iterations 3
smoothSolver:  Solving for k, Initial residual = 0.000902138, Final residual = 1.23792e-06, No Iterations 3

drag : 0.00221863
ExecutionTime = 11.21 s  ClockTime = 11 s

Iteration 18|500
Time = 0.036

smoothSolver:  Solving for Ux, Initial residual = 0.00320618, Final residual = 1.87286e-05, No Iterations 3
smoothSolver:  Solving for Uy, Initial residual = 0.0439213, Final residual = 0.000278881, No Iterations 3
smoothSolver:  Solving for Uz, Initial residual = 0.0365112, Final residual = 0.000175257, No Iterations 3
GAMG:  Solving for p, Initial residual = 0.333355, Final residual = 0.00319466, No Iterations 44
time step continuity errors : sum local = 1.50163e-08, global = 6.81893e-10, cumulative = 3.18558e-09
smoothSolver:  Solving for omega, Initial residual = 0.000345585, Final residual = 5.89312e-07, No Iterations 3
smoothSolver:  Solving for k, Initial residual = 0.000710201, Final residual = 1.03359e-06, No Iterations 3

drag : 0.00219539
ExecutionTime = 11.78 s  ClockTime = 12 s

Iteration 19|500
Time = 0.038

smoothSolver:  Solving for Ux, Initial residual = 0.00324704, Final residual = 1.46971e-05, No Iterations 3
smoothSolver:  Solving for Uy, Initial residual = 0.0411359, Final residual = 0.000213853, No Iterations 3
smoothSolver:  Solving for Uz, Initial residual = 0.0339624, Final residual = 0.000155965, No Iterations 3
GAMG:  Solving for p, Initial residual = 0.291604, Final residual = 0.00291597, No Iterations 41
time step continuity errors : sum local = 1.48042e-08, global = -7.67809e-10, cumulative = 2.41777e-09
smoothSolver:  Solving for omega, Initial residual = 0.00027333, Final residual = 4.82225e-07, No Iterations 3
smoothSolver:  Solving for k, Initial residual = 0.000560652, Final residual = 8.51271e-07, No Iterations 3

drag : 0.00216047
ExecutionTime = 12.31 s  ClockTime = 12 s

Iteration 20|500
Time = 0.04

smoothSolver:  Solving for Ux, Initial residual = 0.00323544, Final residual = 1.16878e-05, No Iterations 3
smoothSolver:  Solving for Uy, Initial residual = 0.0384446, Final residual = 0.000173022, No Iterations 3
smoothSolver:  Solving for Uz, Initial residual = 0.031586, Final residual = 0.000145156, No Iterations 3
GAMG:  Solving for p, Initial residual = 0.267288, Final residual = 0.00255077, No Iterations 39
time step continuity errors : sum local = 1.3316e-08, global = -6.41599e-10, cumulative = 1.77617e-09
smoothSolver:  Solving for omega, Initial residual = 0.000218076, Final residual = 3.96394e-07, No Iterations 3
smoothSolver:  Solving for k, Initial residual = 0.000443568, Final residual = 7.01099e-07, No Iterations 3

drag : 0.00212793
ExecutionTime = 12.84 s  ClockTime = 13 s

Iteration 21|500
Time = 0.042

smoothSolver:  Solving for Ux, Initial residual = 0.00306821, Final residual = 9.3176e-06, No Iterations 3
smoothSolver:  Solving for Uy, Initial residual = 0.0357941, Final residual = 0.000163142, No Iterations 3
smoothSolver:  Solving for Uz, Initial residual = 0.0292355, Final residual = 0.000143602, No Iterations 3
GAMG:  Solving for p, Initial residual = 0.24649, Final residual = 0.00246163, No Iterations 38
time step continuity errors : sum local = 1.27042e-08, global = 5.51351e-10, cumulative = 2.32752e-09
smoothSolver:  Solving for omega, Initial residual = 0.00017588, Final residual = 3.26218e-07, No Iterations 3
smoothSolver:  Solving for k, Initial residual = 0.000351537, Final residual = 5.83501e-07, No Iterations 3

drag : 0.00210473
ExecutionTime = 13.36 s  ClockTime = 14 s

Iteration 22|500
Time = 0.044

smoothSolver:  Solving for Ux, Initial residual = 0.00277691, Final residual = 7.42906e-06, No Iterations 3
smoothSolver:  Solving for Uy, Initial residual = 0.0322734, Final residual = 0.000155604, No Iterations 3
smoothSolver:  Solving for Uz, Initial residual = 0.0267421, Final residual = 0.000137844, No Iterations 3
GAMG:  Solving for p, Initial residual = 0.233297, Final residual = 0.00224912, No Iterations 41
time step continuity errors : sum local = 1.10951e-08, global = -5.02178e-10, cumulative = 1.82534e-09
smoothSolver:  Solving for omega, Initial residual = 0.000143743, Final residual = 2.69627e-07, No Iterations 3
smoothSolver:  Solving for k, Initial residual = 0.000279118, Final residual = 4.87854e-07, No Iterations 3

drag : 0.00209118
ExecutionTime = 13.9 s  ClockTime = 14 s

Iteration 23|500
Time = 0.046

smoothSolver:  Solving for Ux, Initial residual = 0.00241824, Final residual = 6.22169e-06, No Iterations 3
smoothSolver:  Solving for Uy, Initial residual = 0.0278569, Final residual = 0.000146077, No Iterations 3
smoothSolver:  Solving for Uz, Initial residual = 0.0248632, Final residual = 0.000123071, No Iterations 3
GAMG:  Solving for p, Initial residual = 0.233262, Final residual = 0.00223357, No Iterations 43
time step continuity errors : sum local = 1.02188e-08, global = -4.63478e-10, cumulative = 1.36187e-09
smoothSolver:  Solving for omega, Initial residual = 0.000119444, Final residual = 2.25173e-07, No Iterations 3
smoothSolver:  Solving for k, Initial residual = 0.000223729, Final residual = 4.08126e-07, No Iterations 3

drag : 0.00208321
ExecutionTime = 14.45 s  ClockTime = 15 s

Iteration 24|500
Time = 0.048

smoothSolver:  Solving for Ux, Initial residual = 0.00215062, Final residual = 5.64079e-06, No Iterations 3
smoothSolver:  Solving for Uy, Initial residual = 0.0258136, Final residual = 0.000130174, No Iterations 3
smoothSolver:  Solving for Uz, Initial residual = 0.0239009, Final residual = 0.000105877, No Iterations 3
GAMG:  Solving for p, Initial residual = 0.240056, Final residual = 0.00229759, No Iterations 43
time step continuity errors : sum local = 9.57079e-09, global = -4.35577e-10, cumulative = 9.26289e-10
smoothSolver:  Solving for omega, Initial residual = 0.00010124, Final residual = 1.91193e-07, No Iterations 3
smoothSolver:  Solving for k, Initial residual = 0.000185514, Final residual = 3.43915e-07, No Iterations 3

drag : 0.00207532
ExecutionTime = 15 s  ClockTime = 15 s

Iteration 25|500
Time = 0.05

smoothSolver:  Solving for Ux, Initial residual = 0.00198141, Final residual = 5.47078e-06, No Iterations 3
smoothSolver:  Solving for Uy, Initial residual = 0.0240823, Final residual = 0.000110212, No Iterations 3
smoothSolver:  Solving for Uz, Initial residual = 0.0225457, Final residual = 8.837e-05, No Iterations 3
GAMG:  Solving for p, Initial residual = 0.245651, Final residual = 0.0024157, No Iterations 41
time step continuity errors : sum local = 9.13444e-09, global = 4.40672e-10, cumulative = 1.36696e-09
smoothSolver:  Solving for omega, Initial residual = 8.73697e-05, Final residual = 1.64748e-07, No Iterations 3
smoothSolver:  Solving for k, Initial residual = 0.000157926, Final residual = 2.92509e-07, No Iterations 3

drag : 0.00206301
ExecutionTime = 15.57 s  ClockTime = 16 s

Iteration 26|500
Time = 0.052

smoothSolver:  Solving for Ux, Initial residual = 0.00180445, Final residual = 5.24355e-06, No Iterations 3
smoothSolver:  Solving for Uy, Initial residual = 0.0216706, Final residual = 9.18367e-05, No Iterations 3
smoothSolver:  Solving for Uz, Initial residual = 0.0208016, Final residual = 8.03887e-05, No Iterations 3
GAMG:  Solving for p, Initial residual = 0.247267, Final residual = 0.00243797, No Iterations 39
time step continuity errors : sum local = 8.43369e-09, global = 4.11734e-10, cumulative = 1.77869e-09
smoothSolver:  Solving for omega, Initial residual = 7.65966e-05, Final residual = 1.42949e-07, No Iterations 3
smoothSolver:  Solving for k, Initial residual = 0.000137857, Final residual = 2.52405e-07, No Iterations 3

drag : 0.0020437
ExecutionTime = 16.09 s  ClockTime = 16 s

Iteration 27|500
Time = 0.054

smoothSolver:  Solving for Ux, Initial residual = 0.00161232, Final residual = 5.09456e-06, No Iterations 3
smoothSolver:  Solving for Uy, Initial residual = 0.0187211, Final residual = 7.6444e-05, No Iterations 3
smoothSolver:  Solving for Uz, Initial residual = 0.0188075, Final residual = 7.14205e-05, No Iterations 3
GAMG:  Solving for p, Initial residual = 0.244081, Final residual = 0.00242678, No Iterations 36
time step continuity errors : sum local = 7.74929e-09, global = -3.02568e-10, cumulative = 1.47613e-09
smoothSolver:  Solving for omega, Initial residual = 6.82807e-05, Final residual = 1.24638e-07, No Iterations 3
smoothSolver:  Solving for k, Initial residual = 0.000123463, Final residual = 2.19882e-07, No Iterations 3

drag : 0.00201731
ExecutionTime = 16.6 s  ClockTime = 17 s

Iteration 28|500
Time = 0.056

smoothSolver:  Solving for Ux, Initial residual = 0.00143726, Final residual = 4.63167e-06, No Iterations 3
smoothSolver:  Solving for Uy, Initial residual = 0.0157688, Final residual = 6.42961e-05, No Iterations 3
smoothSolver:  Solving for Uz, Initial residual = 0.0168665, Final residual = 6.19789e-05, No Iterations 3
GAMG:  Solving for p, Initial residual = 0.2391, Final residual = 0.00232826, No Iterations 36
time step continuity errors : sum local = 6.95399e-09, global = -2.6879e-10, cumulative = 1.20734e-09
smoothSolver:  Solving for omega, Initial residual = 6.18789e-05, Final residual = 1.09031e-07, No Iterations 3
smoothSolver:  Solving for k, Initial residual = 0.000113321, Final residual = 1.93094e-07, No Iterations 3

drag : 0.00198577
ExecutionTime = 17.11 s  ClockTime = 17 s

Iteration 29|500
Time = 0.058

smoothSolver:  Solving for Ux, Initial residual = 0.0012671, Final residual = 4.05439e-06, No Iterations 3
smoothSolver:  Solving for Uy, Initial residual = 0.0132905, Final residual = 5.66506e-05, No Iterations 3
smoothSolver:  Solving for Uz, Initial residual = 0.0153646, Final residual = 5.36058e-05, No Iterations 3
GAMG:  Solving for p, Initial residual = 0.231181, Final residual = 0.00229455, No Iterations 36
time step continuity errors : sum local = 6.49445e-09, global = -2.53495e-10, cumulative = 9.53841e-10
smoothSolver:  Solving for omega, Initial residual = 5.67827e-05, Final residual = 9.58064e-08, No Iterations 3
smoothSolver:  Solving for k, Initial residual = 0.000105857, Final residual = 1.70634e-07, No Iterations 3

drag : 0.001952
ExecutionTime = 17.62 s  ClockTime = 18 s

Iteration 30|500
Time = 0.06

smoothSolver:  Solving for Ux, Initial residual = 0.00113368, Final residual = 3.56958e-06, No Iterations 3
smoothSolver:  Solving for Uy, Initial residual = 0.011566, Final residual = 5.11869e-05, No Iterations 3
smoothSolver:  Solving for Uz, Initial residual = 0.0144309, Final residual = 4.97342e-05, No Iterations 3
GAMG:  Solving for p, Initial residual = 0.222999, Final residual = 0.00215037, No Iterations 37
time step continuity errors : sum local = 5.83281e-09, global = 2.40496e-10, cumulative = 1.19434e-09
smoothSolver:  Solving for omega, Initial residual = 5.25946e-05, Final residual = 8.35023e-08, No Iterations 3
smoothSolver:  Solving for k, Initial residual = 9.98114e-05, Final residual = 1.51624e-07, No Iterations 3

drag : 0.0019188
ExecutionTime = 18.13 s  ClockTime = 18 s

Iteration 31|500
Time = 0.062

smoothSolver:  Solving for Ux, Initial residual = 0.00108891, Final residual = 3.18278e-06, No Iterations 3
smoothSolver:  Solving for Uy, Initial residual = 0.010742, Final residual = 4.57147e-05, No Iterations 3
smoothSolver:  Solving for Uz, Initial residual = 0.0140031, Final residual = 4.62141e-05, No Iterations 3
GAMG:  Solving for p, Initial residual = 0.212597, Final residual = 0.00206749, No Iterations 39
time step continuity errors : sum local = 5.4148e-09, global = 2.17612e-10, cumulative = 1.41195e-09
smoothSolver:  Solving for omega, Initial residual = 4.89277e-05, Final residual = 7.34527e-08, No Iterations 3
smoothSolver:  Solving for k, Initial residual = 9.47856e-05, Final residual = 1.34312e-07, No Iterations 3

drag : 0.00188833
ExecutionTime = 18.67 s  ClockTime = 19 s

Iteration 32|500
Time = 0.064

smoothSolver:  Solving for Ux, Initial residual = 0.00106195, Final residual = 2.80193e-06, No Iterations 3
smoothSolver:  Solving for Uy, Initial residual = 0.0104293, Final residual = 4.05478e-05, No Iterations 3
smoothSolver:  Solving for Uz, Initial residual = 0.0136502, Final residual = 4.31883e-05, No Iterations 3
GAMG:  Solving for p, Initial residual = 0.202107, Final residual = 0.00200292, No Iterations 41
time step continuity errors : sum local = 5.08503e-09, global = -2.05769e-10, cumulative = 1.20618e-09
smoothSolver:  Solving for omega, Initial residual = 4.54968e-05, Final residual = 6.46765e-08, No Iterations 3
smoothSolver:  Solving for k, Initial residual = 9.07091e-05, Final residual = 1.19519e-07, No Iterations 3

drag : 0.00186162
ExecutionTime = 19.21 s  ClockTime = 19 s

Iteration 33|500
Time = 0.066

smoothSolver:  Solving for Ux, Initial residual = 0.00103104, Final residual = 2.5065e-06, No Iterations 3
smoothSolver:  Solving for Uy, Initial residual = 0.0101285, Final residual = 3.6059e-05, No Iterations 3
smoothSolver:  Solving for Uz, Initial residual = 0.0131154, Final residual = 4.12771e-05, No Iterations 3
GAMG:  Solving for p, Initial residual = 0.193684, Final residual = 0.00192226, No Iterations 40
time step continuity errors : sum local = 4.72935e-09, global = 1.86409e-10, cumulative = 1.39259e-09
smoothSolver:  Solving for omega, Initial residual = 4.23996e-05, Final residual = 5.7346e-08, No Iterations 3
smoothSolver:  Solving for k, Initial residual = 8.71407e-05, Final residual = 1.06651e-07, No Iterations 3

drag : 0.00183858
ExecutionTime = 19.75 s  ClockTime = 20 s

Iteration 34|500
Time = 0.068

smoothSolver:  Solving for Ux, Initial residual = 0.000988745, Final residual = 2.28604e-06, No Iterations 3
smoothSolver:  Solving for Uy, Initial residual = 0.00963461, Final residual = 3.2197e-05, No Iterations 3
smoothSolver:  Solving for Uz, Initial residual = 0.0124863, Final residual = 4.0163e-05, No Iterations 3
GAMG:  Solving for p, Initial residual = 0.185736, Final residual = 0.00184037, No Iterations 38
time step continuity errors : sum local = 4.38695e-09, global = 1.65084e-10, cumulative = 1.55767e-09
smoothSolver:  Solving for omega, Initial residual = 3.97837e-05, Final residual = 5.12716e-08, No Iterations 3
smoothSolver:  Solving for k, Initial residual = 8.39465e-05, Final residual = 9.55026e-08, No Iterations 3

drag : 0.00181846
ExecutionTime = 20.27 s  ClockTime = 20 s

Iteration 35|500
Time = 0.07

smoothSolver:  Solving for Ux, Initial residual = 0.000929018, Final residual = 2.08549e-06, No Iterations 3
smoothSolver:  Solving for Uy, Initial residual = 0.00890915, Final residual = 2.8184e-05, No Iterations 3
smoothSolver:  Solving for Uz, Initial residual = 0.0117758, Final residual = 3.83107e-05, No Iterations 3
GAMG:  Solving for p, Initial residual = 0.176047, Final residual = 0.00173854, No Iterations 37
time step continuity errors : sum local = 4.01377e-09, global = 1.42776e-10, cumulative = 1.70045e-09
smoothSolver:  Solving for omega, Initial residual = 3.7656e-05, Final residual = 4.62445e-08, No Iterations 3
smoothSolver:  Solving for k, Initial residual = 8.11238e-05, Final residual = 8.61539e-08, No Iterations 3

drag : 0.00180031
ExecutionTime = 20.81 s  ClockTime = 21 s

Iteration 36|500
Time = 0.072

smoothSolver:  Solving for Ux, Initial residual = 0.000857164, Final residual = 1.87337e-06, No Iterations 3
smoothSolver:  Solving for Uy, Initial residual = 0.00801633, Final residual = 2.42701e-05, No Iterations 3
smoothSolver:  Solving for Uz, Initial residual = 0.0110853, Final residual = 3.61884e-05, No Iterations 3
GAMG:  Solving for p, Initial residual = 0.165828, Final residual = 0.00158768, No Iterations 38
time step continuity errors : sum local = 3.54605e-09, global = -1.27762e-10, cumulative = 1.57269e-09
smoothSolver:  Solving for omega, Initial residual = 3.59281e-05, Final residual = 4.19088e-08, No Iterations 3
smoothSolver:  Solving for k, Initial residual = 7.85881e-05, Final residual = 7.82114e-08, No Iterations 3

drag : 0.00178333
ExecutionTime = 21.33 s  ClockTime = 21 s

Iteration 37|500
Time = 0.074

smoothSolver:  Solving for Ux, Initial residual = 0.000782434, Final residual = 1.70507e-06, No Iterations 3
smoothSolver:  Solving for Uy, Initial residual = 0.00702503, Final residual = 2.04482e-05, No Iterations 3
smoothSolver:  Solving for Uz, Initial residual = 0.0102576, Final residual = 3.28156e-05, No Iterations 3
GAMG:  Solving for p, Initial residual = 0.156421, Final residual = 0.00156144, No Iterations 37
time step continuity errors : sum local = 3.36979e-09, global = 1.22875e-10, cumulative = 1.69556e-09
smoothSolver:  Solving for omega, Initial residual = 3.44593e-05, Final residual = 3.84159e-08, No Iterations 3
smoothSolver:  Solving for k, Initial residual = 7.6237e-05, Final residual = 7.12041e-08, No Iterations 3

drag : 0.001767
ExecutionTime = 21.84 s  ClockTime = 22 s

Iteration 38|500
Time = 0.076

smoothSolver:  Solving for Ux, Initial residual = 0.000706558, Final residual = 1.56803e-06, No Iterations 3
smoothSolver:  Solving for Uy, Initial residual = 0.00608791, Final residual = 1.71087e-05, No Iterations 3
smoothSolver:  Solving for Uz, Initial residual = 0.00947582, Final residual = 3.06668e-05, No Iterations 3
GAMG:  Solving for p, Initial residual = 0.148354, Final residual = 0.0014413, No Iterations 38
time step continuity errors : sum local = 3.00028e-09, global = -1.19334e-10, cumulative = 1.57623e-09
smoothSolver:  Solving for omega, Initial residual = 3.3153e-05, Final residual = 3.56845e-08, No Iterations 3
smoothSolver:  Solving for k, Initial residual = 7.40443e-05, Final residual = 6.48654e-08, No Iterations 3

drag : 0.00175108
ExecutionTime = 22.36 s  ClockTime = 23 s

Iteration 39|500
Time = 0.078

smoothSolver:  Solving for Ux, Initial residual = 0.000633061, Final residual = 1.47524e-06, No Iterations 3
smoothSolver:  Solving for Uy, Initial residual = 0.00526393, Final residual = 1.46445e-05, No Iterations 3
smoothSolver:  Solving for Uz, Initial residual = 0.00882005, Final residual = 2.91545e-05, No Iterations 3
GAMG:  Solving for p, Initial residual = 0.141826, Final residual = 0.00139092, No Iterations 39
time step continuity errors : sum local = 2.79431e-09, global = 1.15331e-10, cumulative = 1.69156e-09
smoothSolver:  Solving for omega, Initial residual = 3.19071e-05, Final residual = 3.32953e-08, No Iterations 3
smoothSolver:  Solving for k, Initial residual = 7.19134e-05, Final residual = 5.94514e-08, No Iterations 3

drag : 0.00173561
ExecutionTime = 22.89 s  ClockTime = 23 s

Iteration 40|500
Time = 0.08

smoothSolver:  Solving for Ux, Initial residual = 0.000563506, Final residual = 1.37775e-06, No Iterations 3
smoothSolver:  Solving for Uy, Initial residual = 0.00463684, Final residual = 1.3546e-05, No Iterations 3
smoothSolver:  Solving for Uz, Initial residual = 0.00824723, Final residual = 2.89048e-05, No Iterations 3
GAMG:  Solving for p, Initial residual = 0.135186, Final residual = 0.00130882, No Iterations 40
time step continuity errors : sum local = 2.53968e-09, global = -1.04797e-10, cumulative = 1.58676e-09
smoothSolver:  Solving for omega, Initial residual = 3.06826e-05, Final residual = 3.11259e-08, No Iterations 3
smoothSolver:  Solving for k, Initial residual = 6.98264e-05, Final residual = 5.49209e-08, No Iterations 3

drag : 0.0017207
ExecutionTime = 23.43 s  ClockTime = 24 s

Iteration 41|500
Time = 0.082

smoothSolver:  Solving for Ux, Initial residual = 0.000510385, Final residual = 1.27968e-06, No Iterations 3
smoothSolver:  Solving for Uy, Initial residual = 0.00420969, Final residual = 1.29263e-05, No Iterations 3
smoothSolver:  Solving for Uz, Initial residual = 0.00785694, Final residual = 2.79231e-05, No Iterations 3
GAMG:  Solving for p, Initial residual = 0.129046, Final residual = 0.00128047, No Iterations 40
time step continuity errors : sum local = 2.40514e-09, global = 9.12019e-11, cumulative = 1.67796e-09
smoothSolver:  Solving for omega, Initial residual = 2.94175e-05, Final residual = 2.90868e-08, No Iterations 3
smoothSolver:  Solving for k, Initial residual = 6.76683e-05, Final residual = 5.08151e-08, No Iterations 3

drag : 0.0017066
ExecutionTime = 23.96 s  ClockTime = 24 s

Iteration 42|500
Time = 0.084

smoothSolver:  Solving for Ux, Initial residual = 0.000471651, Final residual = 1.19194e-06, No Iterations 3
smoothSolver:  Solving for Uy, Initial residual = 0.00395539, Final residual = 1.26517e-05, No Iterations 3
smoothSolver:  Solving for Uz, Initial residual = 0.00750454, Final residual = 2.74542e-05, No Iterations 3
GAMG:  Solving for p, Initial residual = 0.124735, Final residual = 0.00124647, No Iterations 39
time step continuity errors : sum local = 2.27093e-09, global = -9.53915e-11, cumulative = 1.58257e-09
smoothSolver:  Solving for omega, Initial residual = 2.81283e-05, Final residual = 2.7101e-08, No Iterations 3
smoothSolver:  Solving for k, Initial residual = 6.55321e-05, Final residual = 4.7018e-08, No Iterations 3

drag : 0.00169351
ExecutionTime = 24.48 s  ClockTime = 25 s

Iteration 43|500
Time = 0.086

smoothSolver:  Solving for Ux, Initial residual = 0.000441561, Final residual = 1.10296e-06, No Iterations 3
smoothSolver:  Solving for Uy, Initial residual = 0.00377662, Final residual = 1.21173e-05, No Iterations 3
smoothSolver:  Solving for Uz, Initial residual = 0.00717741, Final residual = 2.62891e-05, No Iterations 3
GAMG:  Solving for p, Initial residual = 0.120364, Final residual = 0.00115722, No Iterations 39
time step continuity errors : sum local = 2.04952e-09, global = -8.48772e-11, cumulative = 1.49769e-09
smoothSolver:  Solving for omega, Initial residual = 2.68909e-05, Final residual = 2.52138e-08, No Iterations 3
smoothSolver:  Solving for k, Initial residual = 6.34546e-05, Final residual = 4.35055e-08, No Iterations 3

drag : 0.00168149
ExecutionTime = 25.01 s  ClockTime = 25 s

Iteration 44|500
Time = 0.088

smoothSolver:  Solving for Ux, Initial residual = 0.00041806, Final residual = 1.01267e-06, No Iterations 3
smoothSolver:  Solving for Uy, Initial residual = 0.00360894, Final residual = 1.16093e-05, No Iterations 3
smoothSolver:  Solving for Uz, Initial residual = 0.00685854, Final residual = 2.54766e-05, No Iterations 3
GAMG:  Solving for p, Initial residual = 0.11606, Final residual = 0.00112184, No Iterations 38
time step continuity errors : sum local = 1.93702e-09, global = 7.91346e-11, cumulative = 1.57683e-09
smoothSolver:  Solving for omega, Initial residual = 2.56881e-05, Final residual = 2.33888e-08, No Iterations 3
smoothSolver:  Solving for k, Initial residual = 6.14365e-05, Final residual = 4.01976e-08, No Iterations 3

drag : 0.00167058
ExecutionTime = 25.53 s  ClockTime = 26 s

Iteration 45|500
Time = 0.09

smoothSolver:  Solving for Ux, Initial residual = 0.000397477, Final residual = 9.13334e-07, No Iterations 3
smoothSolver:  Solving for Uy, Initial residual = 0.00342556, Final residual = 1.10521e-05, No Iterations 3
smoothSolver:  Solving for Uz, Initial residual = 0.0065704, Final residual = 2.45805e-05, No Iterations 3
GAMG:  Solving for p, Initial residual = 0.111326, Final residual = 0.00108415, No Iterations 38
time step continuity errors : sum local = 1.83102e-09, global = 7.31889e-11, cumulative = 1.65002e-09
smoothSolver:  Solving for omega, Initial residual = 2.45455e-05, Final residual = 2.16376e-08, No Iterations 3
smoothSolver:  Solving for k, Initial residual = 5.94507e-05, Final residual = 3.70749e-08, No Iterations 3

drag : 0.00166071
ExecutionTime = 26.07 s  ClockTime = 26 s

Iteration 46|500
Time = 0.092

smoothSolver:  Solving for Ux, Initial residual = 0.000377352, Final residual = 8.24769e-07, No Iterations 3
smoothSolver:  Solving for Uy, Initial residual = 0.00325348, Final residual = 1.02375e-05, No Iterations 3
smoothSolver:  Solving for Uz, Initial residual = 0.00625318, Final residual = 2.35215e-05, No Iterations 3
GAMG:  Solving for p, Initial residual = 0.105998, Final residual = 0.00103004, No Iterations 39
time step continuity errors : sum local = 1.7064e-09, global = -6.44429e-11, cumulative = 1.58557e-09
smoothSolver:  Solving for omega, Initial residual = 2.34903e-05, Final residual = 1.99834e-08, No Iterations 3
smoothSolver:  Solving for k, Initial residual = 5.75339e-05, Final residual = 3.41628e-08, No Iterations 3

drag : 0.00165171
ExecutionTime = 26.61 s  ClockTime = 27 s

Iteration 47|500
Time = 0.094

smoothSolver:  Solving for Ux, Initial residual = 0.000355591, Final residual = 7.44148e-07, No Iterations 3
smoothSolver:  Solving for Uy, Initial residual = 0.00301892, Final residual = 9.27908e-06, No Iterations 3
smoothSolver:  Solving for Uz, Initial residual = 0.00590532, Final residual = 2.19902e-05, No Iterations 3
GAMG:  Solving for p, Initial residual = 0.100543, Final residual = 0.000994783, No Iterations 40
time step continuity errors : sum local = 1.61885e-09, global = 6.0576e-11, cumulative = 1.64615e-09
smoothSolver:  Solving for omega, Initial residual = 2.253e-05, Final residual = 1.84554e-08, No Iterations 3
smoothSolver:  Solving for k, Initial residual = 5.57008e-05, Final residual = 3.15075e-08, No Iterations 3

drag : 0.00164352
ExecutionTime = 27.14 s  ClockTime = 27 s

Iteration 48|500
Time = 0.096

smoothSolver:  Solving for Ux, Initial residual = 0.000337485, Final residual = 6.68514e-07, No Iterations 3
smoothSolver:  Solving for Uy, Initial residual = 0.00279202, Final residual = 8.28302e-06, No Iterations 3
smoothSolver:  Solving for Uz, Initial residual = 0.00558869, Final residual = 2.08108e-05, No Iterations 3
GAMG:  Solving for p, Initial residual = 0.0951915, Final residual = 0.000932821, No Iterations 42
time step continuity errors : sum local = 1.49258e-09, global = 5.44147e-11, cumulative = 1.70057e-09
smoothSolver:  Solving for omega, Initial residual = 2.16557e-05, Final residual = 1.70841e-08, No Iterations 3
smoothSolver:  Solving for k, Initial residual = 5.39039e-05, Final residual = 2.91426e-08, No Iterations 3

drag : 0.00163603
ExecutionTime = 27.69 s  ClockTime = 28 s

Iteration 49|500
Time = 0.098

smoothSolver:  Solving for Ux, Initial residual = 0.000321475, Final residual = 6.15344e-07, No Iterations 3
smoothSolver:  Solving for Uy, Initial residual = 0.00258301, Final residual = 7.52613e-06, No Iterations 3
smoothSolver:  Solving for Uz, Initial residual = 0.00530961, Final residual = 1.96654e-05, No Iterations 3
GAMG:  Solving for p, Initial residual = 0.0899589, Final residual = 0.000870104, No Iterations 44
time step continuity errors : sum local = 1.37011e-09, global = 4.98862e-11, cumulative = 1.75045e-09
smoothSolver:  Solving for omega, Initial residual = 2.08883e-05, Final residual = 1.58444e-08, No Iterations 3
smoothSolver:  Solving for k, Initial residual = 5.21853e-05, Final residual = 2.70946e-08, No Iterations 3

drag : 0.00162926
ExecutionTime = 28.24 s  ClockTime = 28 s

Iteration 50|500
Time = 0.1

smoothSolver:  Solving for Ux, Initial residual = 0.000305946, Final residual = 5.59558e-07, No Iterations 3
smoothSolver:  Solving for Uy, Initial residual = 0.00240847, Final residual = 7.05996e-06, No Iterations 3
smoothSolver:  Solving for Uz, Initial residual = 0.00502901, Final residual = 1.85169e-05, No Iterations 3
GAMG:  Solving for p, Initial residual = 0.0852046, Final residual = 0.000844454, No Iterations 44
time step continuity errors : sum local = 1.30915e-09, global = 4.91045e-11, cumulative = 1.79956e-09
smoothSolver:  Solving for omega, Initial residual = 2.0256e-05, Final residual = 1.47599e-08, No Iterations 3
smoothSolver:  Solving for k, Initial residual = 5.0544e-05, Final residual = 2.53601e-08, No Iterations 3

drag : 0.00162326
Averaging fields
ExecutionTime = 28.81 s  ClockTime = 29 s

Iteration 51|500
Time = 0.102

smoothSolver:  Solving for Ux, Initial residual = 0.000290972, Final residual = 5.23627e-07, No Iterations 3
smoothSolver:  Solving for Uy, Initial residual = 0.00226388, Final residual = 6.63617e-06, No Iterations 3
smoothSolver:  Solving for Uz, Initial residual = 0.00475639, Final residual = 1.76554e-05, No Iterations 3
GAMG:  Solving for p, Initial residual = 0.081032, Final residual = 0.000793831, No Iterations 44
time step continuity errors : sum local = 1.21124e-09, global = 4.59876e-11, cumulative = 1.84554e-09
smoothSolver:  Solving for omega, Initial residual = 1.97228e-05, Final residual = 1.38588e-08, No Iterations 3
smoothSolver:  Solving for k, Initial residual = 4.89747e-05, Final residual = 2.39273e-08, No Iterations 3

drag : 0.00161806
Averaging fields
ExecutionTime = 29.38 s  ClockTime = 30 s

Iteration 52|500
Time = 0.104

smoothSolver:  Solving for Ux, Initial residual = 0.000279451, Final residual = 4.8554e-07, No Iterations 3
smoothSolver:  Solving for Uy, Initial residual = 0.00216015, Final residual = 6.33956e-06, No Iterations 3
smoothSolver:  Solving for Uz, Initial residual = 0.0046046, Final residual = 1.69982e-05, No Iterations 3
GAMG:  Solving for p, Initial residual = 0.0774342, Final residual = 0.000763108, No Iterations 43
time step continuity errors : sum local = 1.14548e-09, global = -4.40236e-11, cumulative = 1.80152e-09
smoothSolver:  Solving for omega, Initial residual = 1.92633e-05, Final residual = 1.31184e-08, No Iterations 3
smoothSolver:  Solving for k, Initial residual = 4.74756e-05, Final residual = 2.27858e-08, No Iterations 3

drag : 0.0016137
Averaging fields
ExecutionTime = 29.94 s  ClockTime = 30 s

Iteration 53|500
Time = 0.106

smoothSolver:  Solving for Ux, Initial residual = 0.000267348, Final residual = 4.51167e-07, No Iterations 3
smoothSolver:  Solving for Uy, Initial residual = 0.00205529, Final residual = 5.93607e-06, No Iterations 3
smoothSolver:  Solving for Uz, Initial residual = 0.00444978, Final residual = 1.6129e-05, No Iterations 3
GAMG:  Solving for p, Initial residual = 0.0743705, Final residual = 0.000735382, No Iterations 42
time step continuity errors : sum local = 1.08616e-09, global = 3.71636e-11, cumulative = 1.83868e-09
smoothSolver:  Solving for omega, Initial residual = 1.88702e-05, Final residual = 1.25006e-08, No Iterations 3
smoothSolver:  Solving for k, Initial residual = 4.60638e-05, Final residual = 2.19054e-08, No Iterations 3

drag : 0.00161019
Averaging fields
ExecutionTime = 30.5 s  ClockTime = 31 s

Iteration 54|500
Time = 0.108

smoothSolver:  Solving for Ux, Initial residual = 0.000256776, Final residual = 4.31185e-07, No Iterations 3
smoothSolver:  Solving for Uy, Initial residual = 0.00196124, Final residual = 5.57102e-06, No Iterations 3
smoothSolver:  Solving for Uz, Initial residual = 0.0042594, Final residual = 1.55673e-05, No Iterations 3
GAMG:  Solving for p, Initial residual = 0.0716909, Final residual = 0.000709455, No Iterations 41
time step continuity errors : sum local = 1.0315e-09, global = 1.18123e-11, cumulative = 1.8505e-09
smoothSolver:  Solving for omega, Initial residual = 1.85345e-05, Final residual = 1.19897e-08, No Iterations 3
smoothSolver:  Solving for k, Initial residual = 4.47577e-05, Final residual = 2.12316e-08, No Iterations 3

drag : 0.00160749
Averaging fields
ExecutionTime = 31.07 s  ClockTime = 31 s

Iteration 55|500
Time = 0.11

smoothSolver:  Solving for Ux, Initial residual = 0.000246164, Final residual = 4.09569e-07, No Iterations 3
smoothSolver:  Solving for Uy, Initial residual = 0.0018649, Final residual = 5.14382e-06, No Iterations 3
smoothSolver:  Solving for Uz, Initial residual = 0.0040933, Final residual = 1.49127e-05, No Iterations 3
GAMG:  Solving for p, Initial residual = 0.0689264, Final residual = 0.000682029, No Iterations 42
time step continuity errors : sum local = 9.76628e-10, global = -2.34921e-11, cumulative = 1.827e-09
smoothSolver:  Solving for omega, Initial residual = 1.82142e-05, Final residual = 1.15719e-08, No Iterations 3
smoothSolver:  Solving for k, Initial residual = 4.35467e-05, Final residual = 2.0684e-08, No Iterations 3

drag : 0.00160551
Averaging fields
ExecutionTime = 31.62 s  ClockTime = 32 s

Iteration 56|500
Time = 0.112

smoothSolver:  Solving for Ux, Initial residual = 0.000235478, Final residual = 3.91385e-07, No Iterations 3
smoothSolver:  Solving for Uy, Initial residual = 0.00177036, Final residual = 4.87327e-06, No Iterations 3
smoothSolver:  Solving for Uz, Initial residual = 0.00393126, Final residual = 1.43174e-05, No Iterations 3
GAMG:  Solving for p, Initial residual = 0.066091, Final residual = 0.000654805, No Iterations 43
time step continuity errors : sum local = 9.24196e-10, global = 2.16477e-11, cumulative = 1.84865e-09
smoothSolver:  Solving for omega, Initial residual = 1.79018e-05, Final residual = 1.12156e-08, No Iterations 3
smoothSolver:  Solving for k, Initial residual = 4.24118e-05, Final residual = 2.02258e-08, No Iterations 3

drag : 0.00160417
Averaging fields
ExecutionTime = 32.18 s  ClockTime = 32 s

Iteration 57|500
Time = 0.114

smoothSolver:  Solving for Ux, Initial residual = 0.000225699, Final residual = 3.74863e-07, No Iterations 3
smoothSolver:  Solving for Uy, Initial residual = 0.00167511, Final residual = 4.5977e-06, No Iterations 3
smoothSolver:  Solving for Uz, Initial residual = 0.00379161, Final residual = 1.39431e-05, No Iterations 3
GAMG:  Solving for p, Initial residual = 0.0633252, Final residual = 0.000627461, No Iterations 43
time step continuity errors : sum local = 8.74069e-10, global = 1.99846e-11, cumulative = 1.86864e-09
smoothSolver:  Solving for omega, Initial residual = 1.75806e-05, Final residual = 1.09078e-08, No Iterations 3
smoothSolver:  Solving for k, Initial residual = 4.13381e-05, Final residual = 1.98206e-08, No Iterations 3

drag : 0.00160328
Averaging fields
ExecutionTime = 32.75 s  ClockTime = 33 s

Iteration 58|500
Time = 0.116

smoothSolver:  Solving for Ux, Initial residual = 0.000214658, Final residual = 3.65503e-07, No Iterations 3
smoothSolver:  Solving for Uy, Initial residual = 0.00158036, Final residual = 4.28841e-06, No Iterations 3
smoothSolver:  Solving for Uz, Initial residual = 0.00360954, Final residual = 1.3483e-05, No Iterations 3
GAMG:  Solving for p, Initial residual = 0.0603478, Final residual = 0.00058316, No Iterations 43
time step continuity errors : sum local = 8.02966e-10, global = 1.64543e-11, cumulative = 1.88509e-09
smoothSolver:  Solving for omega, Initial residual = 1.72343e-05, Final residual = 1.06383e-08, No Iterations 3
smoothSolver:  Solving for k, Initial residual = 4.02936e-05, Final residual = 1.94516e-08, No Iterations 3

drag : 0.00160274
Averaging fields
ExecutionTime = 33.31 s  ClockTime = 33 s

Iteration 59|500
Time = 0.118

smoothSolver:  Solving for Ux, Initial residual = 0.000204948, Final residual = 3.51977e-07, No Iterations 3
smoothSolver:  Solving for Uy, Initial residual = 0.00149525, Final residual = 3.99057e-06, No Iterations 3
smoothSolver:  Solving for Uz, Initial residual = 0.00344736, Final residual = 1.28846e-05, No Iterations 3
GAMG:  Solving for p, Initial residual = 0.0572908, Final residual = 0.000564065, No Iterations 42
time step continuity errors : sum local = 7.68566e-10, global = -1.85969e-11, cumulative = 1.86649e-09
smoothSolver:  Solving for omega, Initial residual = 1.68775e-05, Final residual = 1.03817e-08, No Iterations 3
smoothSolver:  Solving for k, Initial residual = 3.92679e-05, Final residual = 1.91058e-08, No Iterations 3

drag : 0.00160244
Averaging fields
ExecutionTime = 33.87 s  ClockTime = 34 s

Iteration 60|500
Time = 0.12

smoothSolver:  Solving for Ux, Initial residual = 0.000195195, Final residual = 3.40307e-07, No Iterations 3
smoothSolver:  Solving for Uy, Initial residual = 0.00140663, Final residual = 3.65368e-06, No Iterations 3
smoothSolver:  Solving for Uz, Initial residual = 0.00326738, Final residual = 1.24923e-05, No Iterations 3
GAMG:  Solving for p, Initial residual = 0.0545862, Final residual = 0.000532845, No Iterations 42
time step continuity errors : sum local = 7.19708e-10, global = -1.88868e-11, cumulative = 1.84761e-09
smoothSolver:  Solving for omega, Initial residual = 1.65192e-05, Final residual = 1.01376e-08, No Iterations 3
smoothSolver:  Solving for k, Initial residual = 3.82416e-05, Final residual = 1.87749e-08, No Iterations 3

drag : 0.00160236
Averaging fields
ExecutionTime = 34.42 s  ClockTime = 35 s

Iteration 61|500
Time = 0.122

smoothSolver:  Solving for Ux, Initial residual = 0.000187201, Final residual = 3.28193e-07, No Iterations 3
smoothSolver:  Solving for Uy, Initial residual = 0.00133309, Final residual = 3.34172e-06, No Iterations 3
smoothSolver:  Solving for Uz, Initial residual = 0.00311867, Final residual = 1.20636e-05, No Iterations 3
GAMG:  Solving for p, Initial residual = 0.0520792, Final residual = 0.000509765, No Iterations 42
time step continuity errors : sum local = 6.83425e-10, global = -2.13882e-11, cumulative = 1.82622e-09
smoothSolver:  Solving for omega, Initial residual = 1.61663e-05, Final residual = 9.9041e-09, No Iterations 3
smoothSolver:  Solving for k, Initial residual = 3.7232e-05, Final residual = 1.84423e-08, No Iterations 3

drag : 0.00160248
Averaging fields
ExecutionTime = 34.97 s  ClockTime = 35 s

Iteration 62|500
Time = 0.124

smoothSolver:  Solving for Ux, Initial residual = 0.000178573, Final residual = 3.1672e-07, No Iterations 3
smoothSolver:  Solving for Uy, Initial residual = 0.00126216, Final residual = 3.13484e-06, No Iterations 3
smoothSolver:  Solving for Uz, Initial residual = 0.00298691, Final residual = 1.15933e-05, No Iterations 3
GAMG:  Solving for p, Initial residual = 0.0499251, Final residual = 0.000479376, No Iterations 42
time step continuity errors : sum local = 6.3874e-10, global = -2.06129e-11, cumulative = 1.80561e-09
smoothSolver:  Solving for omega, Initial residual = 1.58155e-05, Final residual = 9.68004e-09, No Iterations 3
smoothSolver:  Solving for k, Initial residual = 3.62354e-05, Final residual = 1.8094e-08, No Iterations 3

drag : 0.00160277
Averaging fields
ExecutionTime = 35.53 s  ClockTime = 36 s

Iteration 63|500
Time = 0.126

smoothSolver:  Solving for Ux, Initial residual = 0.000170832, Final residual = 3.03144e-07, No Iterations 3
smoothSolver:  Solving for Uy, Initial residual = 0.0011979, Final residual = 2.95173e-06, No Iterations 3
smoothSolver:  Solving for Uz, Initial residual = 0.00287008, Final residual = 1.09678e-05, No Iterations 3
GAMG:  Solving for p, Initial residual = 0.0475782, Final residual = 0.000468943, No Iterations 41
time step continuity errors : sum local = 6.21888e-10, global = 2.00314e-11, cumulative = 1.82564e-09
smoothSolver:  Solving for omega, Initial residual = 1.54728e-05, Final residual = 9.45647e-09, No Iterations 3
smoothSolver:  Solving for k, Initial residual = 3.52626e-05, Final residual = 1.77305e-08, No Iterations 3

drag : 0.00160323
Averaging fields
ExecutionTime = 36.09 s  ClockTime = 36 s

Iteration 64|500
Time = 0.128

smoothSolver:  Solving for Ux, Initial residual = 0.000165428, Final residual = 2.89461e-07, No Iterations 3
smoothSolver:  Solving for Uy, Initial residual = 0.0011488, Final residual = 2.78559e-06, No Iterations 3
smoothSolver:  Solving for Uz, Initial residual = 0.00277875, Final residual = 1.03669e-05, No Iterations 3
GAMG:  Solving for p, Initial residual = 0.0452529, Final residual = 0.000443679, No Iterations 41
time step continuity errors : sum local = 5.86212e-10, global = 1.63051e-11, cumulative = 1.84194e-09
smoothSolver:  Solving for omega, Initial residual = 1.51385e-05, Final residual = 9.21954e-09, No Iterations 3
smoothSolver:  Solving for k, Initial residual = 3.43091e-05, Final residual = 1.73572e-08, No Iterations 3

drag : 0.00160382
Averaging fields
ExecutionTime = 36.65 s  ClockTime = 37 s

Iteration 65|500
Time = 0.13

smoothSolver:  Solving for Ux, Initial residual = 0.00015999, Final residual = 2.77616e-07, No Iterations 3
smoothSolver:  Solving for Uy, Initial residual = 0.00111065, Final residual = 2.66998e-06, No Iterations 3
smoothSolver:  Solving for Uz, Initial residual = 0.00270135, Final residual = 1.00615e-05, No Iterations 3
GAMG:  Solving for p, Initial residual = 0.0430761, Final residual = 0.000419989, No Iterations 41
time step continuity errors : sum local = 5.53275e-10, global = 1.00696e-11, cumulative = 1.85201e-09
smoothSolver:  Solving for omega, Initial residual = 1.47975e-05, Final residual = 8.99309e-09, No Iterations 3
smoothSolver:  Solving for k, Initial residual = 3.33925e-05, Final residual = 1.69861e-08, No Iterations 3

drag : 0.00160452
Averaging fields
ExecutionTime = 37.19 s  ClockTime = 37 s

Iteration 66|500
Time = 0.132

smoothSolver:  Solving for Ux, Initial residual = 0.000154962, Final residual = 2.65955e-07, No Iterations 3
smoothSolver:  Solving for Uy, Initial residual = 0.00108422, Final residual = 2.62205e-06, No Iterations 3
smoothSolver:  Solving for Uz, Initial residual = 0.00262701, Final residual = 9.53707e-06, No Iterations 3
GAMG:  Solving for p, Initial residual = 0.0411653, Final residual = 0.000407019, No Iterations 40
time step continuity errors : sum local = 5.35032e-10, global = -2.86178e-12, cumulative = 1.84915e-09
smoothSolver:  Solving for omega, Initial residual = 1.44568e-05, Final residual = 8.77285e-09, No Iterations 3
smoothSolver:  Solving for k, Initial residual = 3.25205e-05, Final residual = 1.66304e-08, No Iterations 3

drag : 0.00160528
Averaging fields
ExecutionTime = 37.74 s  ClockTime = 38 s

Iteration 67|500
Time = 0.134

smoothSolver:  Solving for Ux, Initial residual = 0.000150237, Final residual = 2.55127e-07, No Iterations 3
smoothSolver:  Solving for Uy, Initial residual = 0.00105549, Final residual = 2.56192e-06, No Iterations 3
smoothSolver:  Solving for Uz, Initial residual = 0.002534, Final residual = 8.97204e-06, No Iterations 3
GAMG:  Solving for p, Initial residual = 0.0392679, Final residual = 0.000390477, No Iterations 40
time step continuity errors : sum local = 5.12403e-10, global = 6.05487e-12, cumulative = 1.8552e-09
smoothSolver:  Solving for omega, Initial residual = 1.41232e-05, Final residual = 8.53737e-09, No Iterations 3
smoothSolver:  Solving for k, Initial residual = 3.17068e-05, Final residual = 1.62825e-08, No Iterations 3

drag : 0.00160609
Averaging fields
ExecutionTime = 38.3 s  ClockTime = 38 s

Iteration 68|500
Time = 0.136

smoothSolver:  Solving for Ux, Initial residual = 0.000145677, Final residual = 2.44123e-07, No Iterations 3
smoothSolver:  Solving for Uy, Initial residual = 0.00102774, Final residual = 2.49482e-06, No Iterations 3
smoothSolver:  Solving for Uz, Initial residual = 0.0024383, Final residual = 8.59431e-06, No Iterations 3
GAMG:  Solving for p, Initial residual = 0.0373404, Final residual = 0.000373283, No Iterations 40
time step continuity errors : sum local = 4.8913e-10, global = 7.37752e-12, cumulative = 1.86258e-09
smoothSolver:  Solving for omega, Initial residual = 1.37963e-05, Final residual = 8.29397e-09, No Iterations 3
smoothSolver:  Solving for k, Initial residual = 3.09379e-05, Final residual = 1.59654e-08, No Iterations 3

drag : 0.0016069
Averaging fields
ExecutionTime = 38.87 s  ClockTime = 39 s

Iteration 69|500
Time = 0.138

smoothSolver:  Solving for Ux, Initial residual = 0.000141477, Final residual = 2.34218e-07, No Iterations 3
smoothSolver:  Solving for Uy, Initial residual = 0.000993192, Final residual = 2.43867e-06, No Iterations 3
smoothSolver:  Solving for Uz, Initial residual = 0.00233953, Final residual = 8.10899e-06, No Iterations 3
GAMG:  Solving for p, Initial residual = 0.0354261, Final residual = 0.00034056, No Iterations 41
time step continuity errors : sum local = 4.45621e-10, global = -4.93263e-12, cumulative = 1.85765e-09
smoothSolver:  Solving for omega, Initial residual = 1.34754e-05, Final residual = 8.03939e-09, No Iterations 3
smoothSolver:  Solving for k, Initial residual = 3.02034e-05, Final residual = 1.56966e-08, No Iterations 3

drag : 0.00160767
Averaging fields
ExecutionTime = 39.45 s  ClockTime = 40 s

Iteration 70|500
Time = 0.14

smoothSolver:  Solving for Ux, Initial residual = 0.000137643, Final residual = 2.26153e-07, No Iterations 3
smoothSolver:  Solving for Uy, Initial residual = 0.000957632, Final residual = 2.42067e-06, No Iterations 3
smoothSolver:  Solving for Uz, Initial residual = 0.00224816, Final residual = 7.74463e-06, No Iterations 3
GAMG:  Solving for p, Initial residual = 0.0336589, Final residual = 0.000335951, No Iterations 40
time step continuity errors : sum local = 4.38989e-10, global = 7.03909e-12, cumulative = 1.86469e-09
smoothSolver:  Solving for omega, Initial residual = 1.31725e-05, Final residual = 7.77505e-09, No Iterations 3
smoothSolver:  Solving for k, Initial residual = 2.95349e-05, Final residual = 1.54126e-08, No Iterations 3

drag : 0.0016084
Averaging fields
ExecutionTime = 40 s  ClockTime = 40 s

Iteration 71|500
Time = 0.142

smoothSolver:  Solving for Ux, Initial residual = 0.000133708, Final residual = 2.17938e-07, No Iterations 3
smoothSolver:  Solving for Uy, Initial residual = 0.000912065, Final residual = 2.33058e-06, No Iterations 3
smoothSolver:  Solving for Uz, Initial residual = 0.00214287, Final residual = 7.42923e-06, No Iterations 3
GAMG:  Solving for p, Initial residual = 0.0319644, Final residual = 0.00030877, No Iterations 41
time step continuity errors : sum local = 4.02936e-10, global = -5.99697e-12, cumulative = 1.85869e-09
smoothSolver:  Solving for omega, Initial residual = 1.28829e-05, Final residual = 7.50235e-09, No Iterations 3
smoothSolver:  Solving for k, Initial residual = 2.89488e-05, Final residual = 1.51118e-08, No Iterations 3

drag : 0.00160906
Averaging fields
ExecutionTime = 40.55 s  ClockTime = 41 s

Iteration 72|500
Time = 0.144

smoothSolver:  Solving for Ux, Initial residual = 0.000129942, Final residual = 2.11628e-07, No Iterations 3
smoothSolver:  Solving for Uy, Initial residual = 0.000870007, Final residual = 2.28319e-06, No Iterations 3
smoothSolver:  Solving for Uz, Initial residual = 0.00205518, Final residual = 7.12621e-06, No Iterations 3
GAMG:  Solving for p, Initial residual = 0.0304974, Final residual = 0.000299983, No Iterations 40
time step continuity errors : sum local = 3.90857e-10, global = 6.83928e-12, cumulative = 1.86553e-09
smoothSolver:  Solving for omega, Initial residual = 1.26034e-05, Final residual = 7.22028e-09, No Iterations 3
smoothSolver:  Solving for k, Initial residual = 2.8433e-05, Final residual = 1.48012e-08, No Iterations 3

drag : 0.00160964
Averaging fields
ExecutionTime = 41.1 s  ClockTime = 41 s

Iteration 73|500
Time = 0.146

smoothSolver:  Solving for Ux, Initial residual = 0.000126559, Final residual = 2.04794e-07, No Iterations 3
smoothSolver:  Solving for Uy, Initial residual = 0.000828606, Final residual = 2.19531e-06, No Iterations 3
smoothSolver:  Solving for Uz, Initial residual = 0.00196789, Final residual = 6.77619e-06, No Iterations 3
GAMG:  Solving for p, Initial residual = 0.0292106, Final residual = 0.000281908, No Iterations 40
time step continuity errors : sum local = 3.66709e-10, global = 7.55079e-12, cumulative = 1.87308e-09
smoothSolver:  Solving for omega, Initial residual = 1.2334e-05, Final residual = 6.9354e-09, No Iterations 3
smoothSolver:  Solving for k, Initial residual = 2.79799e-05, Final residual = 1.44841e-08, No Iterations 3

drag : 0.00161014
Averaging fields
ExecutionTime = 41.67 s  ClockTime = 42 s

Iteration 74|500
Time = 0.148

smoothSolver:  Solving for Ux, Initial residual = 0.000123152, Final residual = 1.98332e-07, No Iterations 3
smoothSolver:  Solving for Uy, Initial residual = 0.000787749, Final residual = 2.09948e-06, No Iterations 3
smoothSolver:  Solving for Uz, Initial residual = 0.00187977, Final residual = 6.48965e-06, No Iterations 3
GAMG:  Solving for p, Initial residual = 0.0278559, Final residual = 0.00027076, No Iterations 40
time step continuity errors : sum local = 3.51619e-10, global = 8.84059e-12, cumulative = 1.88192e-09
smoothSolver:  Solving for omega, Initial residual = 1.20737e-05, Final residual = 6.65405e-09, No Iterations 3
smoothSolver:  Solving for k, Initial residual = 2.75697e-05, Final residual = 1.41557e-08, No Iterations 3

drag : 0.00161058
Averaging fields
ExecutionTime = 42.22 s  ClockTime = 42 s

Iteration 75|500
Time = 0.15

smoothSolver:  Solving for Ux, Initial residual = 0.000119724, Final residual = 1.91687e-07, No Iterations 3
smoothSolver:  Solving for Uy, Initial residual = 0.000748055, Final residual = 2.02214e-06, No Iterations 3
smoothSolver:  Solving for Uz, Initial residual = 0.00181385, Final residual = 6.26251e-06, No Iterations 3
GAMG:  Solving for p, Initial residual = 0.0264406, Final residual = 0.000262512, No Iterations 40
time step continuity errors : sum local = 3.40284e-10, global = 9.33896e-12, cumulative = 1.89126e-09
smoothSolver:  Solving for omega, Initial residual = 1.18175e-05, Final residual = 6.37115e-09, No Iterations 3
smoothSolver:  Solving for k, Initial residual = 2.71905e-05, Final residual = 1.38199e-08, No Iterations 3

drag : 0.00161096
Averaging fields
ExecutionTime = 42.76 s  ClockTime = 43 s

Iteration 76|500
Time = 0.152

smoothSolver:  Solving for Ux, Initial residual = 0.000116394, Final residual = 1.84327e-07, No Iterations 3
smoothSolver:  Solving for Uy, Initial residual = 0.000712499, Final residual = 1.91561e-06, No Iterations 3
smoothSolver:  Solving for Uz, Initial residual = 0.00175893, Final residual = 5.97248e-06, No Iterations 3
GAMG:  Solving for p, Initial residual = 0.0251611, Final residual = 0.000244538, No Iterations 41
time step continuity errors : sum local = 3.16364e-10, global = -8.69757e-12, cumulative = 1.88256e-09
smoothSolver:  Solving for omega, Initial residual = 1.15658e-05, Final residual = 6.09806e-09, No Iterations 3
smoothSolver:  Solving for k, Initial residual = 2.68477e-05, Final residual = 1.348e-08, No Iterations 3

drag : 0.00161128
Averaging fields
ExecutionTime = 43.31 s  ClockTime = 43 s

Iteration 77|500
Time = 0.154

smoothSolver:  Solving for Ux, Initial residual = 0.000113014, Final residual = 1.76925e-07, No Iterations 3
smoothSolver:  Solving for Uy, Initial residual = 0.000677719, Final residual = 1.81451e-06, No Iterations 3
smoothSolver:  Solving for Uz, Initial residual = 0.00170161, Final residual = 5.74135e-06, No Iterations 3
GAMG:  Solving for p, Initial residual = 0.024045, Final residual = 0.000238499, No Iterations 41
time step continuity errors : sum local = 3.07941e-10, global = -8.23994e-12, cumulative = 1.87432e-09
smoothSolver:  Solving for omega, Initial residual = 1.13156e-05, Final residual = 5.83708e-09, No Iterations 3
smoothSolver:  Solving for k, Initial residual = 2.65218e-05, Final residual = 1.3135e-08, No Iterations 3

drag : 0.00161156
Averaging fields
ExecutionTime = 43.87 s  ClockTime = 44 s

Iteration 78|500
Time = 0.156

smoothSolver:  Solving for Ux, Initial residual = 0.00010959, Final residual = 1.69178e-07, No Iterations 3
smoothSolver:  Solving for Uy, Initial residual = 0.000646158, Final residual = 1.71e-06, No Iterations 3
smoothSolver:  Solving for Uz, Initial residual = 0.00164885, Final residual = 5.50685e-06, No Iterations 3
GAMG:  Solving for p, Initial residual = 0.0230203, Final residual = 0.000221807, No Iterations 42
time step continuity errors : sum local = 2.85844e-10, global = 6.81236e-12, cumulative = 1.88114e-09
smoothSolver:  Solving for omega, Initial residual = 1.10691e-05, Final residual = 5.59268e-09, No Iterations 3
smoothSolver:  Solving for k, Initial residual = 2.62039e-05, Final residual = 1.27961e-08, No Iterations 3

drag : 0.0016118
Averaging fields
ExecutionTime = 44.43 s  ClockTime = 45 s

Iteration 79|500
Time = 0.158

smoothSolver:  Solving for Ux, Initial residual = 0.000106327, Final residual = 1.60986e-07, No Iterations 3
smoothSolver:  Solving for Uy, Initial residual = 0.000615465, Final residual = 1.6119e-06, No Iterations 3
smoothSolver:  Solving for Uz, Initial residual = 0.00159042, Final residual = 5.23975e-06, No Iterations 3
GAMG:  Solving for p, Initial residual = 0.0219446, Final residual = 0.000213461, No Iterations 42
time step continuity errors : sum local = 2.74562e-10, global = 6.70593e-12, cumulative = 1.88784e-09
smoothSolver:  Solving for omega, Initial residual = 1.08252e-05, Final residual = 5.36624e-09, No Iterations 3
smoothSolver:  Solving for k, Initial residual = 2.58849e-05, Final residual = 1.24672e-08, No Iterations 3

drag : 0.00161197
Averaging fields
ExecutionTime = 44.99 s  ClockTime = 45 s

Iteration 80|500
Time = 0.16

smoothSolver:  Solving for Ux, Initial residual = 0.00010321, Final residual = 1.5279e-07, No Iterations 3
smoothSolver:  Solving for Uy, Initial residual = 0.000589106, Final residual = 1.52628e-06, No Iterations 3
smoothSolver:  Solving for Uz, Initial residual = 0.0015464, Final residual = 4.98579e-06, No Iterations 3
GAMG:  Solving for p, Initial residual = 0.0209814, Final residual = 0.000201891, No Iterations 42
time step continuity errors : sum local = 2.5921e-10, global = 6.15028e-12, cumulative = 1.89399e-09
smoothSolver:  Solving for omega, Initial residual = 1.05813e-05, Final residual = 5.16287e-09, No Iterations 3
smoothSolver:  Solving for k, Initial residual = 2.55663e-05, Final residual = 1.21553e-08, No Iterations 3

drag : 0.00161208
Averaging fields
ExecutionTime = 45.55 s  ClockTime = 46 s

Iteration 81|500
Time = 0.162

smoothSolver:  Solving for Ux, Initial residual = 9.99848e-05, Final residual = 1.44707e-07, No Iterations 3
smoothSolver:  Solving for Uy, Initial residual = 0.000563127, Final residual = 1.4315e-06, No Iterations 3
smoothSolver:  Solving for Uz, Initial residual = 0.00149644, Final residual = 4.80369e-06, No Iterations 3
GAMG:  Solving for p, Initial residual = 0.0200701, Final residual = 0.000200407, No Iterations 41
time step continuity errors : sum local = 2.56848e-10, global = -6.82974e-12, cumulative = 1.88716e-09
smoothSolver:  Solving for omega, Initial residual = 1.03398e-05, Final residual = 4.98028e-09, No Iterations 3
smoothSolver:  Solving for k, Initial residual = 2.52416e-05, Final residual = 1.18507e-08, No Iterations 3

drag : 0.00161211
Averaging fields
ExecutionTime = 46.1 s  ClockTime = 46 s

Iteration 82|500
Time = 0.164

smoothSolver:  Solving for Ux, Initial residual = 9.70365e-05, Final residual = 1.3613e-07, No Iterations 3
smoothSolver:  Solving for Uy, Initial residual = 0.000538797, Final residual = 1.36376e-06, No Iterations 3
smoothSolver:  Solving for Uz, Initial residual = 0.0014408, Final residual = 4.64627e-06, No Iterations 3
GAMG:  Solving for p, Initial residual = 0.0192301, Final residual = 0.000190395, No Iterations 41
time step continuity errors : sum local = 2.43587e-10, global = -6.76329e-12, cumulative = 1.8804e-09
smoothSolver:  Solving for omega, Initial residual = 1.00969e-05, Final residual = 4.81751e-09, No Iterations 3
smoothSolver:  Solving for k, Initial residual = 2.49142e-05, Final residual = 1.15598e-08, No Iterations 3

drag : 0.00161203
Averaging fields
ExecutionTime = 46.67 s  ClockTime = 47 s

Iteration 83|500
Time = 0.166

smoothSolver:  Solving for Ux, Initial residual = 9.42895e-05, Final residual = 1.28072e-07, No Iterations 3
smoothSolver:  Solving for Uy, Initial residual = 0.000514881, Final residual = 1.30008e-06, No Iterations 3
smoothSolver:  Solving for Uz, Initial residual = 0.00138135, Final residual = 4.45493e-06, No Iterations 3
GAMG:  Solving for p, Initial residual = 0.0184582, Final residual = 0.000178421, No Iterations 41
time step continuity errors : sum local = 2.27886e-10, global = -6.10903e-12, cumulative = 1.87429e-09
smoothSolver:  Solving for omega, Initial residual = 9.85511e-06, Final residual = 4.6706e-09, No Iterations 3
smoothSolver:  Solving for k, Initial residual = 2.45823e-05, Final residual = 1.129e-08, No Iterations 3

drag : 0.00161186
Averaging fields
ExecutionTime = 47.21 s  ClockTime = 47 s

Iteration 84|500
Time = 0.168

smoothSolver:  Solving for Ux, Initial residual = 9.14406e-05, Final residual = 1.20409e-07, No Iterations 3
smoothSolver:  Solving for Uy, Initial residual = 0.000491238, Final residual = 1.23657e-06, No Iterations 3
smoothSolver:  Solving for Uz, Initial residual = 0.00133691, Final residual = 4.26869e-06, No Iterations 3
GAMG:  Solving for p, Initial residual = 0.0176974, Final residual = 0.000173356, No Iterations 40
time step continuity errors : sum local = 2.21084e-10, global = 6.00569e-12, cumulative = 1.8803e-09
smoothSolver:  Solving for omega, Initial residual = 9.61596e-06, Final residual = 4.53751e-09, No Iterations 3
smoothSolver:  Solving for k, Initial residual = 2.42542e-05, Final residual = 1.10451e-08, No Iterations 3

drag : 0.0016116
Averaging fields
ExecutionTime = 47.76 s  ClockTime = 48 s

Iteration 85|500
Time = 0.17

smoothSolver:  Solving for Ux, Initial residual = 8.85693e-05, Final residual = 1.13185e-07, No Iterations 3
smoothSolver:  Solving for Uy, Initial residual = 0.00047169, Final residual = 1.17271e-06, No Iterations 3
smoothSolver:  Solving for Uz, Initial residual = 0.0013005, Final residual = 4.10944e-06, No Iterations 3
GAMG:  Solving for p, Initial residual = 0.0169447, Final residual = 0.000162144, No Iterations 40
time step continuity errors : sum local = 2.06484e-10, global = 5.92696e-12, cumulative = 1.88622e-09
smoothSolver:  Solving for omega, Initial residual = 9.38229e-06, Final residual = 4.41561e-09, No Iterations 3
smoothSolver:  Solving for k, Initial residual = 2.39304e-05, Final residual = 1.08315e-08, No Iterations 3

drag : 0.00161127
Averaging fields
ExecutionTime = 48.3 s  ClockTime = 48 s

Iteration 86|500
Time = 0.172

smoothSolver:  Solving for Ux, Initial residual = 8.57006e-05, Final residual = 1.06733e-07, No Iterations 3
smoothSolver:  Solving for Uy, Initial residual = 0.000451809, Final residual = 1.11885e-06, No Iterations 3
smoothSolver:  Solving for Uz, Initial residual = 0.00126608, Final residual = 3.95764e-06, No Iterations 3
GAMG:  Solving for p, Initial residual = 0.0163218, Final residual = 0.000160074, No Iterations 39
time step continuity errors : sum local = 2.0356e-10, global = -6.24352e-12, cumulative = 1.87998e-09
smoothSolver:  Solving for omega, Initial residual = 9.15395e-06, Final residual = 4.30298e-09, No Iterations 3
smoothSolver:  Solving for k, Initial residual = 2.3611e-05, Final residual = 1.06429e-08, No Iterations 3

drag : 0.00161089
Averaging fields
ExecutionTime = 48.84 s  ClockTime = 49 s

Iteration 87|500
Time = 0.174

smoothSolver:  Solving for Ux, Initial residual = 8.29875e-05, Final residual = 1.00705e-07, No Iterations 3
smoothSolver:  Solving for Uy, Initial residual = 0.000432566, Final residual = 1.0677e-06, No Iterations 3
smoothSolver:  Solving for Uz, Initial residual = 0.00123223, Final residual = 3.81963e-06, No Iterations 3
GAMG:  Solving for p, Initial residual = 0.0156767, Final residual = 0.000152083, No Iterations 39
time step continuity errors : sum local = 1.9314e-10, global = -5.78763e-12, cumulative = 1.87419e-09
smoothSolver:  Solving for omega, Initial residual = 8.92965e-06, Final residual = 4.19798e-09, No Iterations 3
smoothSolver:  Solving for k, Initial residual = 2.32934e-05, Final residual = 1.04715e-08, No Iterations 3

drag : 0.00161047
Averaging fields
ExecutionTime = 49.38 s  ClockTime = 50 s

Iteration 88|500
Time = 0.176

smoothSolver:  Solving for Ux, Initial residual = 8.04539e-05, Final residual = 9.51972e-08, No Iterations 3
smoothSolver:  Solving for Uy, Initial residual = 0.000416644, Final residual = 1.01544e-06, No Iterations 3
smoothSolver:  Solving for Uz, Initial residual = 0.00119832, Final residual = 3.67811e-06, No Iterations 3
GAMG:  Solving for p, Initial residual = 0.0150431, Final residual = 0.000145016, No Iterations 39
time step continuity errors : sum local = 1.83937e-10, global = -5.51172e-12, cumulative = 1.86868e-09
smoothSolver:  Solving for omega, Initial residual = 8.71049e-06, Final residual = 4.09822e-09, No Iterations 3
smoothSolver:  Solving for k, Initial residual = 2.29843e-05, Final residual = 1.03107e-08, No Iterations 3

drag : 0.00161004
Averaging fields
ExecutionTime = 49.91 s  ClockTime = 50 s

Iteration 89|500
Time = 0.178

smoothSolver:  Solving for Ux, Initial residual = 7.78509e-05, Final residual = 9.02156e-08, No Iterations 3
smoothSolver:  Solving for Uy, Initial residual = 0.000402389, Final residual = 9.65977e-07, No Iterations 3
smoothSolver:  Solving for Uz, Initial residual = 0.00116066, Final residual = 3.51726e-06, No Iterations 3
GAMG:  Solving for p, Initial residual = 0.0144031, Final residual = 0.000140337, No Iterations 39
time step continuity errors : sum local = 1.77788e-10, global = -5.00585e-12, cumulative = 1.86367e-09
smoothSolver:  Solving for omega, Initial residual = 8.49763e-06, Final residual = 4.00418e-09, No Iterations 3
smoothSolver:  Solving for k, Initial residual = 2.26849e-05, Final residual = 1.01625e-08, No Iterations 3

drag : 0.00160959
Averaging fields
ExecutionTime = 50.45 s  ClockTime = 51 s

Iteration 90|500
Time = 0.18

smoothSolver:  Solving for Ux, Initial residual = 7.56601e-05, Final residual = 8.59128e-08, No Iterations 3
smoothSolver:  Solving for Uy, Initial residual = 0.000389752, Final residual = 9.17862e-07, No Iterations 3
smoothSolver:  Solving for Uz, Initial residual = 0.0011252, Final residual = 3.35701e-06, No Iterations 3
GAMG:  Solving for p, Initial residual = 0.0137533, Final residual = 0.000136331, No Iterations 39
time step continuity errors : sum local = 1.72522e-10, global = -4.71545e-12, cumulative = 1.85896e-09
smoothSolver:  Solving for omega, Initial residual = 8.29246e-06, Final residual = 3.91528e-09, No Iterations 3
smoothSolver:  Solving for k, Initial residual = 2.23925e-05, Final residual = 1.0022e-08, No Iterations 3

drag : 0.00160913
Averaging fields
ExecutionTime = 50.98 s  ClockTime = 51 s

[...]

Iteration 486|500
Time = 1.972

smoothSolver:  Solving for Uax, Initial residual = 0.000483299, Final residual = 5.61836e-09, No Iterations 3
smoothSolver:  Solving for Uay, Initial residual = 0.00229833, Final residual = 2.27982e-08, No Iterations 3
smoothSolver:  Solving for Uaz, Initial residual = 0.00285441, Final residual = 2.75014e-08, No Iterations 3
GAMG:  Solving for pa, Initial residual = 0.641674, Final residual = 0.00567135, No Iterations 3
time step continuity errors : sum local = 8.89164e+16, global = 4.52946e+12, cumulative = -1.25735e+14
smoothSolver:  Solving for wa, Initial residual = 0.00356181, Final residual = 1.09668e-10, No Iterations 3
smoothSolver:  Solving for ka, Initial residual = 0.000126263, Final residual = 2.6986e-12, No Iterations 3
ExecutionTime = 1196.89 s  ClockTime = 1197 s

Iteration 487|500
Time = 1.974

smoothSolver:  Solving for Uax, Initial residual = 0.000485261, Final residual = 5.41925e-09, No Iterations 3
smoothSolver:  Solving for Uay, Initial residual = 0.00195609, Final residual = 1.9122e-08, No Iterations 3
smoothSolver:  Solving for Uaz, Initial residual = 0.00257109, Final residual = 2.52006e-08, No Iterations 3
GAMG:  Solving for pa, Initial residual = 0.581453, Final residual = 0.00515811, No Iterations 3
time step continuity errors : sum local = 9.56964e+16, global = 2.07687e+13, cumulative = -1.04967e+14
smoothSolver:  Solving for wa, Initial residual = 0.00756201, Final residual = 2.27759e-10, No Iterations 3
smoothSolver:  Solving for ka, Initial residual = 0.000124723, Final residual = 2.63405e-12, No Iterations 3
ExecutionTime = 1197.52 s  ClockTime = 1198 s

Iteration 488|500
Time = 1.976

smoothSolver:  Solving for Uax, Initial residual = 0.000472163, Final residual = 5.1706e-09, No Iterations 3
smoothSolver:  Solving for Uay, Initial residual = 0.00161743, Final residual = 1.54726e-08, No Iterations 3
smoothSolver:  Solving for Uaz, Initial residual = 0.00225281, Final residual = 2.32851e-08, No Iterations 3
GAMG:  Solving for pa, Initial residual = 0.540061, Final residual = 0.0047116, No Iterations 3
time step continuity errors : sum local = 1.03749e+17, global = 2.35631e+13, cumulative = -8.14036e+13
smoothSolver:  Solving for wa, Initial residual = 0.0181799, Final residual = 5.38644e-10, No Iterations 3
smoothSolver:  Solving for ka, Initial residual = 0.000123719, Final residual = 2.58744e-12, No Iterations 3
ExecutionTime = 1198.15 s  ClockTime = 1199 s

Iteration 489|500
Time = 1.978

smoothSolver:  Solving for Uax, Initial residual = 0.000456312, Final residual = 5.15448e-09, No Iterations 3
smoothSolver:  Solving for Uay, Initial residual = 0.00131596, Final residual = 1.36202e-08, No Iterations 3
smoothSolver:  Solving for Uaz, Initial residual = 0.00196506, Final residual = 2.17685e-08, No Iterations 3
GAMG:  Solving for pa, Initial residual = 0.500683, Final residual = 0.00430272, No Iterations 3
time step continuity errors : sum local = 1.09817e+17, global = 2.59697e+13, cumulative = -5.54339e+13
smoothSolver:  Solving for wa, Initial residual = 0.00474085, Final residual = 1.37731e-10, No Iterations 3
smoothSolver:  Solving for ka, Initial residual = 0.000123156, Final residual = 2.56646e-12, No Iterations 3
ExecutionTime = 1198.78 s  ClockTime = 1199 s

Iteration 490|500
Time = 1.98

smoothSolver:  Solving for Uax, Initial residual = 0.000437608, Final residual = 5.29883e-09, No Iterations 3
smoothSolver:  Solving for Uay, Initial residual = 0.00113574, Final residual = 1.19196e-08, No Iterations 3
smoothSolver:  Solving for Uaz, Initial residual = 0.00178815, Final residual = 2.08619e-08, No Iterations 3
GAMG:  Solving for pa, Initial residual = 0.469223, Final residual = 0.00396543, No Iterations 3
time step continuity errors : sum local = 1.16037e+17, global = 2.9538e+13, cumulative = -2.58959e+13
smoothSolver:  Solving for wa, Initial residual = 0.00269738, Final residual = 7.696e-11, No Iterations 3
smoothSolver:  Solving for ka, Initial residual = 0.000123569, Final residual = 2.55291e-12, No Iterations 3
ExecutionTime = 1199.41 s  ClockTime = 1200 s

Iteration 491|500
Time = 1.982

smoothSolver:  Solving for Uax, Initial residual = 0.000419524, Final residual = 5.46046e-09, No Iterations 3
smoothSolver:  Solving for Uay, Initial residual = 0.00102713, Final residual = 1.08847e-08, No Iterations 3
smoothSolver:  Solving for Uaz, Initial residual = 0.00171845, Final residual = 2.03518e-08, No Iterations 3
GAMG:  Solving for pa, Initial residual = 0.443223, Final residual = 0.00364125, No Iterations 3
time step continuity errors : sum local = 1.21435e+17, global = 3.12497e+13, cumulative = 5.35376e+12
smoothSolver:  Solving for wa, Initial residual = 0.00186886, Final residual = 5.26071e-11, No Iterations 3
smoothSolver:  Solving for ka, Initial residual = 0.000126416, Final residual = 2.56467e-12, No Iterations 3
ExecutionTime = 1200.03 s  ClockTime = 1201 s

Iteration 492|500
Time = 1.984

smoothSolver:  Solving for Uax, Initial residual = 0.000405674, Final residual = 5.5447e-09, No Iterations 3
smoothSolver:  Solving for Uay, Initial residual = 0.000939143, Final residual = 9.89671e-09, No Iterations 3
smoothSolver:  Solving for Uaz, Initial residual = 0.00168141, Final residual = 2.04309e-08, No Iterations 3
GAMG:  Solving for pa, Initial residual = 0.423129, Final residual = 0.00335874, No Iterations 3
time step continuity errors : sum local = 1.27308e+17, global = 3.18325e+13, cumulative = 3.71863e+13
smoothSolver:  Solving for wa, Initial residual = 0.00142105, Final residual = 3.9806e-11, No Iterations 3
smoothSolver:  Solving for ka, Initial residual = 0.000130228, Final residual = 2.59752e-12, No Iterations 3
ExecutionTime = 1200.66 s  ClockTime = 1201 s

Iteration 493|500
Time = 1.986

smoothSolver:  Solving for Uax, Initial residual = 0.000401069, Final residual = 5.69493e-09, No Iterations 3
smoothSolver:  Solving for Uay, Initial residual = 0.000847222, Final residual = 9.26718e-09, No Iterations 3
smoothSolver:  Solving for Uaz, Initial residual = 0.00169557, Final residual = 2.10162e-08, No Iterations 3
GAMG:  Solving for pa, Initial residual = 0.411192, Final residual = 0.00318302, No Iterations 3
time step continuity errors : sum local = 1.36429e+17, global = 1.7917e+13, cumulative = 5.51033e+13
smoothSolver:  Solving for wa, Initial residual = 0.00114223, Final residual = 3.20107e-11, No Iterations 3
smoothSolver:  Solving for ka, Initial residual = 0.000134642, Final residual = 2.66527e-12, No Iterations 3
ExecutionTime = 1201.29 s  ClockTime = 1202 s

Iteration 494|500
Time = 1.988

smoothSolver:  Solving for Uax, Initial residual = 0.000405665, Final residual = 5.83651e-09, No Iterations 3
smoothSolver:  Solving for Uay, Initial residual = 0.000771213, Final residual = 8.63974e-09, No Iterations 3
smoothSolver:  Solving for Uaz, Initial residual = 0.00170179, Final residual = 2.15805e-08, No Iterations 3
GAMG:  Solving for pa, Initial residual = 0.395839, Final residual = 0.003089, No Iterations 3
time step continuity errors : sum local = 1.49887e+17, global = 9.28994e+12, cumulative = 6.43932e+13
smoothSolver:  Solving for wa, Initial residual = 0.000951079, Final residual = 2.67415e-11, No Iterations 3
smoothSolver:  Solving for ka, Initial residual = 0.000139701, Final residual = 2.76672e-12, No Iterations 3
ExecutionTime = 1201.94 s  ClockTime = 1202 s

Iteration 495|500
Time = 1.99

smoothSolver:  Solving for Uax, Initial residual = 0.000411927, Final residual = 5.95934e-09, No Iterations 3
smoothSolver:  Solving for Uay, Initial residual = 0.000720112, Final residual = 8.07955e-09, No Iterations 3
smoothSolver:  Solving for Uaz, Initial residual = 0.00173128, Final residual = 2.21331e-08, No Iterations 3
GAMG:  Solving for pa, Initial residual = 0.380448, Final residual = 0.00306939, No Iterations 3
time step continuity errors : sum local = 1.68244e+17, global = 1.25076e+13, cumulative = 7.69008e+13
smoothSolver:  Solving for wa, Initial residual = 0.000811762, Final residual = 2.2997e-11, No Iterations 3
smoothSolver:  Solving for ka, Initial residual = 0.00014579, Final residual = 2.97926e-12, No Iterations 3
ExecutionTime = 1202.57 s  ClockTime = 1203 s

Iteration 496|500
Time = 1.992

smoothSolver:  Solving for Uax, Initial residual = 0.000417569, Final residual = 6.07631e-09, No Iterations 3
smoothSolver:  Solving for Uay, Initial residual = 0.000692485, Final residual = 7.84807e-09, No Iterations 3
smoothSolver:  Solving for Uaz, Initial residual = 0.00181985, Final residual = 2.34563e-08, No Iterations 3
GAMG:  Solving for pa, Initial residual = 0.366759, Final residual = 0.00308139, No Iterations 3
time step continuity errors : sum local = 1.8992e+17, global = 1.51882e+13, cumulative = 9.2089e+13
smoothSolver:  Solving for wa, Initial residual = 0.000718978, Final residual = 2.01755e-11, No Iterations 3
smoothSolver:  Solving for ka, Initial residual = 0.000157961, Final residual = 3.29226e-12, No Iterations 3
ExecutionTime = 1203.21 s  ClockTime = 1204 s

Iteration 497|500
Time = 1.994

smoothSolver:  Solving for Uax, Initial residual = 0.000428678, Final residual = 6.15637e-09, No Iterations 3
smoothSolver:  Solving for Uay, Initial residual = 0.000674542, Final residual = 7.69282e-09, No Iterations 3
smoothSolver:  Solving for Uaz, Initial residual = 0.00194972, Final residual = 2.52396e-08, No Iterations 3
GAMG:  Solving for pa, Initial residual = 0.3531, Final residual = 0.00309548, No Iterations 3
time step continuity errors : sum local = 2.13736e+17, global = 2.21799e+13, cumulative = 1.14269e+14
smoothSolver:  Solving for wa, Initial residual = 0.000649879, Final residual = 1.79368e-11, No Iterations 3
smoothSolver:  Solving for ka, Initial residual = 0.000173455, Final residual = 3.68211e-12, No Iterations 3
ExecutionTime = 1203.84 s  ClockTime = 1204 s

Iteration 498|500
Time = 1.996

smoothSolver:  Solving for Uax, Initial residual = 0.000445573, Final residual = 6.32363e-09, No Iterations 3
smoothSolver:  Solving for Uay, Initial residual = 0.000664746, Final residual = 7.53794e-09, No Iterations 3
smoothSolver:  Solving for Uaz, Initial residual = 0.00210578, Final residual = 2.72605e-08, No Iterations 3
GAMG:  Solving for pa, Initial residual = 0.340448, Final residual = 0.00309697, No Iterations 3
time step continuity errors : sum local = 2.38353e+17, global = 2.28134e+13, cumulative = 1.37082e+14
smoothSolver:  Solving for wa, Initial residual = 0.000597682, Final residual = 1.61046e-11, No Iterations 3
smoothSolver:  Solving for ka, Initial residual = 0.00019274, Final residual = 4.31764e-12, No Iterations 3
ExecutionTime = 1204.46 s  ClockTime = 1205 s

Iteration 499|500
Time = 1.998

smoothSolver:  Solving for Uax, Initial residual = 0.000469897, Final residual = 6.51846e-09, No Iterations 3
smoothSolver:  Solving for Uay, Initial residual = 0.000659392, Final residual = 7.37074e-09, No Iterations 3
smoothSolver:  Solving for Uaz, Initial residual = 0.00235446, Final residual = 3.00628e-08, No Iterations 3
GAMG:  Solving for pa, Initial residual = 0.32722, Final residual = 0.00309764, No Iterations 3
time step continuity errors : sum local = 2.64557e+17, global = 2.47913e+13, cumulative = 1.61874e+14
smoothSolver:  Solving for wa, Initial residual = 0.000559225, Final residual = 1.46154e-11, No Iterations 3
smoothSolver:  Solving for ka, Initial residual = 0.00021873, Final residual = 5.16214e-12, No Iterations 3
ExecutionTime = 1205.09 s  ClockTime = 1206 s

Iteration 500|500
Time = 2

smoothSolver:  Solving for Uax, Initial residual = 0.000507006, Final residual = 6.8491e-09, No Iterations 3
smoothSolver:  Solving for Uay, Initial residual = 0.000651767, Final residual = 7.21103e-09, No Iterations 3
smoothSolver:  Solving for Uaz, Initial residual = 0.00267916, Final residual = 3.39228e-08, No Iterations 3
GAMG:  Solving for pa, Initial residual = 0.313978, Final residual = 0.0030821, No Iterations 3
time step continuity errors : sum local = 2.9072e+17, global = -7.24425e+13, cumulative = 8.94312e+13
smoothSolver:  Solving for wa, Initial residual = 0.000529414, Final residual = 1.33834e-11, No Iterations 3
smoothSolver:  Solving for ka, Initial residual = 0.000258843, Final residual = 6.30189e-12, No Iterations 3
ExecutionTime = 1205.72 s  ClockTime = 1206 s


adjS1 solution reached max. number of iterations 500


* * * * * * * * * * * * * * * * *
Optimisation cycle 3
* * * * * * * * * * * * * * * * *

Adjoint solver adjS1
drag : 0.00157503
Weighted objective : 0.00157503

Adjoint solver adjS1
drag : 0.00157503
Weighted objective : 0.00157503

Adjoint solver adjS1
drag : 0.00157503
Weighted objective : 0.00157503


- - - - - - - - - - - - - - -
Line search iteration 1
- - - - - - - - - - - - - - -

Writing control point positions to file
Max mesh movement magnitude 2.98376e+25
Mesh movement took 0.15 seconds
  Writing new mesh points for mesh region region0
    Point usage OK.
    Upper triangular ordering OK.
    Topological cell zip-up check OK.
    Face vertices OK.
    Face-face connectivity OK.
    Mesh topology OK.
    Boundary openness (-2.00429e-39 5.11798e-18 -4.77312e-18) OK.
 ***High aspect ratio cells found, Max aspect ratio: 1.47566e+123, number of cells 2912
    Minimum face area = 8.03342e-06. Maximum face area = 2.40623e+23.  Face area magnitudes OK.
 ***Zero or negative cell volume detected.  Minimum negative volume: -2.82335e+21, Number of negative volume cells: 1368
    Mesh non-orthogonality Max: 179.96 average: 8.80106
   *Number of severely non-orthogonal (> 70 degrees) faces: 280.
 ***Number of non-orthogonality errors: 8601.
 ***Error in face pyramids: 8265 faces are incorrectly oriented.
 ***Max skewness = 268.878, 54 highly skew faces detected which may impair the quality of the results
    Failed 5 mesh geometry checks.
    Failed 1 mesh checks.
Resetting mean fields to zero
Resetting mean turbulent fields to zero
Solving equations for solver op1

Iteration 1|500
Time = 2.002

smoothSolver:  Solving for Ux, Initial residual = 0.31623, Final residual = 1.15781e-18, No Iterations 3
smoothSolver:  Solving for Uy, Initial residual = 0.99921, Final residual = 0.006602, No Iterations 3
smoothSolver:  Solving for Uz, Initial residual = 0.998658, Final residual = 0.00336409, No Iterations 3
[7] [stack trace]
[7] =============
[7] #1  Foam::sigFpe::sigHandler(int) in ~/OpenFOAMv2312/platforms/linux64GccDPInt32Opt/lib/libOpenFOAM.so
[7] #2  ? in /lib/x86_64-linux-gnu/libc.so.6
[7] #3  Foam::GAMGSolver::scale(Foam::Field<double>&, Foam::Field<double>&, Foam::lduMatrix const&, Foam::FieldField<Foam::Field, double> const&, Foam::UPtrList<Foam::lduInterfaceField const> const&, Foam::Field<double> const&, unsigned char) const in ~/OpenFOAMv2312/platforms/linux64GccDPInt32Opt/lib/libOpenFOAM.so
[7] #4  Foam::GAMGSolver::Vcycle(Foam::PtrList<Foam::lduMatrix::smoother> const&, Foam::Field<double>&, Foam::Field<double> const&, Foam::Field<double>&, Foam::Field<double>&, Foam::Field<double>&, Foam::Field<double>&, Foam::Field<double>&, Foam::PtrList<Foam::Field<double> >&, Foam::PtrList<Foam::Field<double> >&, unsigned char) const in ~/OpenFOAMv2312/platforms/linux64GccDPInt32Opt/lib/libOpenFOAM.so
[7] #5  Foam::GAMGSolver::solve(Foam::Field<double>&, Foam::Field<double> const&, unsigned char) const in ~/OpenFOAMv2312/platforms/linux64GccDPInt32Opt/lib/libOpenFOAM.so
[7] #6  Foam::fvMatrix<double>::solveSegregated(Foam::dictionary const&) in ~/OpenFOAMv2312/platforms/linux64GccDPInt32Opt/lib/libfiniteVolume.so
[7] #7  Foam::fvMatrix<double>::solveSegregatedOrCoupled(Foam::dictionary const&) in ~/OpenFOAMv2312/platforms/linux64GccDPInt32Opt/lib/libfiniteVolume.so
[7] #8  Foam::fvMesh::solve(Foam::fvMatrix<double>&, Foam::dictionary const&) const in ~/OpenFOAMv2312/platforms/linux64GccDPInt32Opt/lib/libfiniteVolume.so
[7] #9  Foam::simple::mainIter() in ~/OpenFOAMv2312/platforms/linux64GccDPInt32Opt/lib/libadjointOptimisation.so
[7] #10  Foam::simple::solve() in ~/OpenFOAMv2312/platforms/linux64GccDPInt32Opt/lib/libadjointOptimisation.so
[7] #11  Foam::optimisationManager::solvePrimalEquations() in ~/OpenFOAMv2312/platforms/linux64GccDPInt32Opt/lib/libadjointOptimisation.so
[7] #12  Foam::optimisationManager::lineSearchUpdate() in ~/OpenFOAMv2312/platforms/linux64GccDPInt32Opt/lib/libadjointOptimisation.so
[7] #13  ? in ~/OpenFOAMv2312/platforms/linux64GccDPInt32Opt/bin/adjointOptimisationFoam
[7] #14  ? in /lib/x86_64-linux-gnu/libc.so.6
[7] #15  __libc_start_main in /lib/x86_64-linux-gnu/libc.so.6
[7] #16  ? in ~/OpenFOAMv2312/platforms/linux64GccDPInt32Opt/bin/adjointOptimisationFoam
[7] =============
[DESKTOP:27295] *** Process received signal ***
[DESKTOP:27295] Signal: Floating point exception (8)
[DESKTOP:27295] Signal code:  (-6)
[DESKTOP:27295] Failing at address: 0x3e800006a9f
[DESKTOP:27295] [ 0] /lib/x86_64-linux-gnu/libc.so.6(+0x42520)[0x7ffa2f403520]
[DESKTOP:27295] [ 1] /lib/x86_64-linux-gnu/libc.so.6(pthread_kill+0x12c)[0x7ffa2f4579fc]
[DESKTOP:27295] [ 2] /lib/x86_64-linux-gnu/libc.so.6(raise+0x16)[0x7ffa2f403476]
[DESKTOP:27295] [ 3] /lib/x86_64-linux-gnu/libc.so.6(+0x42520)[0x7ffa2f403520]
[DESKTOP:27295] [ 4] /home/user/OpenFOAMv2312/platforms/linux64GccDPInt32Opt/lib/libOpenFOAM.so(_ZNK4Foam10GAMGSolver5scaleERNS_5FieldIdEES3_RKNS_9lduMatrixERKNS_10FieldFieldIS1_dEERKNS_8UPtrListIKNS_17lduInterfaceFieldEEERKS2_h+0xca)[0x7ffa300d9d1a]
[DESKTOP:27295] [ 5] /home/user/OpenFOAMv2312/platforms/linux64GccDPInt32Opt/lib/libOpenFOAM.so(_ZNK4Foam10GAMGSolver6VcycleERKNS_7PtrListINS_9lduMatrix8smootherEEERNS_5FieldIdEERKS8_S9_S9_S9_S9_S9_RNS1_IS8_EESD_h+0xdd8)[0x7ffa300dbd28]
[DESKTOP:27295] [ 6] /home/user/OpenFOAMv2312/platforms/linux64GccDPInt32Opt/lib/libOpenFOAM.so(_ZNK4Foam10GAMGSolver5solveERNS_5FieldIdEERKS2_h+0x66f)[0x7ffa300dd9ef]
[DESKTOP:27295] [ 7] /home/user/OpenFOAMv2312/platforms/linux64GccDPInt32Opt/lib/libfiniteVolume.so(_ZN4Foam8fvMatrixIdE15solveSegregatedERKNS_10dictionaryE+0x617)[0x7ffa3403c477]
[DESKTOP:27295] [ 8] /home/user/OpenFOAMv2312/platforms/linux64GccDPInt32Opt/lib/libfiniteVolume.so(_ZN4Foam8fvMatrixIdE24solveSegregatedOrCoupledERKNS_10dictionaryE+0x407)[0x7ffa333c1d17]
[DESKTOP:27295] [ 9] /home/user/OpenFOAMv2312/platforms/linux64GccDPInt32Opt/lib/libfiniteVolume.so(_ZNK4Foam6fvMesh5solveERNS_8fvMatrixIdEERKNS_10dictionaryE+0x28)[0x7ffa333501d8]
[DESKTOP:27295] [10] /home/user/OpenFOAMv2312/platforms/linux64GccDPInt32Opt/lib/libadjointOptimisation.so(_ZN4Foam6simple8mainIterEv+0xc1a)[0x7ffa3095df5a]
[DESKTOP:27295] [11] /home/user/OpenFOAMv2312/platforms/linux64GccDPInt32Opt/lib/libadjointOptimisation.so(_ZN4Foam6simple5solveEv+0xf2)[0x7ffa30957912]
[DESKTOP:27295] [12] /home/user/OpenFOAMv2312/platforms/linux64GccDPInt32Opt/lib/libadjointOptimisation.so(_ZN4Foam19optimisationManager20solvePrimalEquationsEv+0x3e)[0x7ffa30e8734e]
[DESKTOP:27295] [13] /home/user/OpenFOAMv2312/platforms/linux64GccDPInt32Opt/lib/libadjointOptimisation.so(_ZN4Foam19optimisationManager16lineSearchUpdateEv+0x3a5)[0x7ffa30e89065]
[DESKTOP:27295] [14] adjointOptimisationFoam(+0x4b4e)[0x55c82209fb4e]
[DESKTOP:27295] [15] /lib/x86_64-linux-gnu/libc.so.6(+0x29d90)[0x7ffa2f3ead90]
[DESKTOP:27295] [16] /lib/x86_64-linux-gnu/libc.so.6(__libc_start_main+0x80)[0x7ffa2f3eae40]
[DESKTOP:27295] [17] adjointOptimisationFoam(+0x55e5)[0x55c8220a05e5]
[DESKTOP:27295] *** End of error message ***
--------------------------------------------------------------------------
Primary job  terminated normally, but 1 process returned
a non-zero exit code. Per user-direction, the job has been aborted.
--------------------------------------------------------------------------
--------------------------------------------------------------------------
mpirun noticed that process rank 7 with PID 0 on node DESKTOP exited on signal 8 (Floating point exception).
--------------------------------------------------------------------------
