/*---------------------------------------------------------------------------*\
| =========                 |                                                 |
| \\      /  F ield         | OpenFOAM: The Open Source CFD Toolbox           |
|  \\    /   O peration     | Version:  2312                                  |
|   \\  /    A nd           | Website:  www.openfoam.com                      |
|    \\/     M anipulation  |                                                 |
\*---------------------------------------------------------------------------*/
Build  : _1d8f0d55f7-20231221 OPENFOAM=2312 version=v2312
Arch   : "LSB;label=32;scalar=64"
Exec   : adjointOptimisationFoam -parallel
Date   : Mar 13 2024
Time   : 22:22:47
Host   : DESKTOP
PID    : 28863
I/O    : uncollated
Case   : /home/user/OF2312/DTCHullDoubleBody_AdjointOpti
nProcs : 8
Hosts  :
(
    (DESKTOP 8)
)
Pstream initialized with:
    floatTransfer      : false
    nProcsSimpleSum    : 0
    nonBlockingExchange: 0 (tuning: 0)
    exchange algorithm : 0
    commsType          : nonBlocking
    polling iterations : 0
trapFpe: Floating point exception trapping enabled (FOAM_SIGFPE).
fileModificationChecking : Monitoring run-time modified files using timeStampMaster (fileModificationSkew 5, maxFileModificationPolls 20)
allowSystemOperations : Allowing user-supplied system call operations

// * * * * * * * * * * * * * * * * * * * * * * * * * * * * * * * * * * * * * //
Create time

Create mesh for time = 0

optimisationManager type : steadyOptimisation
designVariables type : shape
shapeDesignVariables type : volumetricBSplines
displacementMethod type : volumetricBSplinesMotionSolver
Selecting motion solver: volumetricBSplinesMotionSolver
NURBS3DVolume type : cartesian
Using knots 6(0 0 0 1 1 1)
Using knots 6(0 0 0 1 1 1)
Using knots 6(0 0 0 1 1 1)
controlPointsDefinition type : axisAligned
Writing control point positions to file
Control Points bounds 
	X1 : (6 6.4)
	X2 : (-0.15 0)
	X3 : (-0.1 0.3)

Initially found 3256 points inside control boxes
Mapping of mesh points to parametric space for box box ...
Found 0 to discard from morphing boxes
Keeping 3256 parameterized points in boxes
	Mapping completed in 0.02 seconds
	Max iterations per point needed to compute parametric coordinates : 1
	Max difference between original mesh points and parameterized ones 6.21795e-15
morphingBoxConstraint type : none
Selecting incompressible transport model Newtonian
Selecting turbulence model type RAS
Selecting RAS turbulence model SpalartAllmaras
Selecting patchDistMethod advectionDiffusion
Selecting patchDistMethod meshWave
    Point usage OK.
    Upper triangular ordering OK.
    Topological cell zip-up check OK.
    Face vertices OK.
    Face-face connectivity OK.
    Mesh topology OK.
    Boundary openness (-8.94449e-17 6.25367e-17 -1.67013e-16) OK.
    Max cell openness = 3.57945e-16 OK.
    Max aspect ratio = 93.3834 OK.
    Minimum face area = 4.16664e-06. Maximum face area = 1.00826.  Face area magnitudes OK.
    Min volume = 9.55387e-08. Max volume = 0.933497.  Total volume = 12967.1.  Cell volumes OK.
    Mesh non-orthogonality Max: 69.9675 average: 6.29965
    Non-orthogonality check OK.
    Face pyramids OK.
    Max skewness = 3.89027 OK.
    Mesh geometry OK.
Mesh OK.
smoothSolver:  Solving for yWall, Initial residual = 6.2824e-05, Final residual = 7.09933e-08, No Iterations 3
smoothSolver:  Solving for yWall, Initial residual = 4.2591e-05, Final residual = 5.80942e-08, No Iterations 3
smoothSolver:  Solving for yWall, Initial residual = 3.32142e-05, Final residual = 5.1587e-08, No Iterations 3
smoothSolver:  Solving for yWall, Initial residual = 2.84195e-05, Final residual = 4.75401e-08, No Iterations 3
smoothSolver:  Solving for yWall, Initial residual = 2.55688e-05, Final residual = 4.45424e-08, No Iterations 3
smoothSolver:  Solving for yWall, Initial residual = 2.36314e-05, Final residual = 4.21565e-08, No Iterations 3
smoothSolver:  Solving for yWall, Initial residual = 2.21988e-05, Final residual = 4.01663e-08, No Iterations 3
smoothSolver:  Solving for yWall, Initial residual = 2.10742e-05, Final residual = 3.84524e-08, No Iterations 3
smoothSolver:  Solving for yWall, Initial residual = 2.01575e-05, Final residual = 3.69591e-08, No Iterations 3
smoothSolver:  Solving for yWall, Initial residual = 1.93826e-05, Final residual = 3.5656e-08, No Iterations 3
smoothSolver:  Solving for yWall, Initial residual = 1.87138e-05, Final residual = 3.45115e-08, No Iterations 3
smoothSolver:  Solving for yWall, Initial residual = 1.81273e-05, Final residual = 3.3492e-08, No Iterations 3
smoothSolver:  Solving for yWall, Initial residual = 1.76073e-05, Final residual = 3.25777e-08, No Iterations 3
smoothSolver:  Solving for yWall, Initial residual = 1.71383e-05, Final residual = 3.17544e-08, No Iterations 3
smoothSolver:  Solving for yWall, Initial residual = 1.67113e-05, Final residual = 3.10084e-08, No Iterations 3
smoothSolver:  Solving for yWall, Initial residual = 1.63195e-05, Final residual = 3.03297e-08, No Iterations 3
smoothSolver:  Solving for yWall, Initial residual = 1.5959e-05, Final residual = 2.97204e-08, No Iterations 3
smoothSolver:  Solving for yWall, Initial residual = 1.56256e-05, Final residual = 2.91655e-08, No Iterations 3
smoothSolver:  Solving for yWall, Initial residual = 1.53155e-05, Final residual = 2.86554e-08, No Iterations 3
smoothSolver:  Solving for yWall, Initial residual = 1.50271e-05, Final residual = 2.81865e-08, No Iterations 3
smoothSolver:  Solving for yWall, Initial residual = 1.47579e-05, Final residual = 2.77555e-08, No Iterations 3
smoothSolver:  Solving for yWall, Initial residual = 1.45062e-05, Final residual = 2.73532e-08, No Iterations 3
smoothSolver:  Solving for yWall, Initial residual = 1.42704e-05, Final residual = 2.69769e-08, No Iterations 3
smoothSolver:  Solving for yWall, Initial residual = 1.4049e-05, Final residual = 2.66242e-08, No Iterations 3
smoothSolver:  Solving for yWall, Initial residual = 1.3841e-05, Final residual = 2.62924e-08, No Iterations 3
smoothSolver:  Solving for yWall, Initial residual = 1.36449e-05, Final residual = 2.59808e-08, No Iterations 3
smoothSolver:  Solving for yWall, Initial residual = 1.34599e-05, Final residual = 2.56866e-08, No Iterations 3
smoothSolver:  Solving for yWall, Initial residual = 1.32855e-05, Final residual = 2.54091e-08, No Iterations 3
smoothSolver:  Solving for yWall, Initial residual = 1.31204e-05, Final residual = 2.51463e-08, No Iterations 3
smoothSolver:  Solving for yWall, Initial residual = 1.29642e-05, Final residual = 2.48987e-08, No Iterations 3
smoothSolver:  Solving for yWall, Initial residual = 1.28157e-05, Final residual = 2.46637e-08, No Iterations 3
smoothSolver:  Solving for yWall, Initial residual = 1.26745e-05, Final residual = 2.44399e-08, No Iterations 3
smoothSolver:  Solving for yWall, Initial residual = 1.25402e-05, Final residual = 2.42272e-08, No Iterations 3
smoothSolver:  Solving for yWall, Initial residual = 1.24122e-05, Final residual = 2.4024e-08, No Iterations 3
smoothSolver:  Solving for yWall, Initial residual = 1.22902e-05, Final residual = 2.38299e-08, No Iterations 3
smoothSolver:  Solving for yWall, Initial residual = 1.21734e-05, Final residual = 2.36441e-08, No Iterations 3
smoothSolver:  Solving for yWall, Initial residual = 1.20619e-05, Final residual = 2.34663e-08, No Iterations 3
smoothSolver:  Solving for yWall, Initial residual = 1.19549e-05, Final residual = 2.32952e-08, No Iterations 3
smoothSolver:  Solving for yWall, Initial residual = 1.18524e-05, Final residual = 2.31308e-08, No Iterations 3
smoothSolver:  Solving for yWall, Initial residual = 1.1754e-05, Final residual = 2.29721e-08, No Iterations 3
smoothSolver:  Solving for yWall, Initial residual = 1.16593e-05, Final residual = 2.28191e-08, No Iterations 3
smoothSolver:  Solving for yWall, Initial residual = 1.1568e-05, Final residual = 2.26722e-08, No Iterations 3
smoothSolver:  Solving for yWall, Initial residual = 1.14801e-05, Final residual = 2.25306e-08, No Iterations 3
smoothSolver:  Solving for yWall, Initial residual = 1.13956e-05, Final residual = 2.23934e-08, No Iterations 3
smoothSolver:  Solving for yWall, Initial residual = 1.1314e-05, Final residual = 2.22604e-08, No Iterations 3
smoothSolver:  Solving for yWall, Initial residual = 1.1235e-05, Final residual = 2.21317e-08, No Iterations 3
smoothSolver:  Solving for yWall, Initial residual = 1.11586e-05, Final residual = 2.20072e-08, No Iterations 3
smoothSolver:  Solving for yWall, Initial residual = 1.10846e-05, Final residual = 2.18866e-08, No Iterations 3
smoothSolver:  Solving for yWall, Initial residual = 1.10129e-05, Final residual = 2.17696e-08, No Iterations 3
smoothSolver:  Solving for yWall, Initial residual = 1.09435e-05, Final residual = 2.16564e-08, No Iterations 3
smoothSolver:  Solving for yWall, Initial residual = 1.08761e-05, Final residual = 2.15464e-08, No Iterations 3
smoothSolver:  Solving for yWall, Initial residual = 1.08106e-05, Final residual = 2.14394e-08, No Iterations 3
smoothSolver:  Solving for yWall, Initial residual = 1.0747e-05, Final residual = 2.13359e-08, No Iterations 3
smoothSolver:  Solving for yWall, Initial residual = 1.06854e-05, Final residual = 2.12353e-08, No Iterations 3
smoothSolver:  Solving for yWall, Initial residual = 1.06255e-05, Final residual = 2.11378e-08, No Iterations 3
smoothSolver:  Solving for yWall, Initial residual = 1.05672e-05, Final residual = 2.10431e-08, No Iterations 3
smoothSolver:  Solving for yWall, Initial residual = 1.05106e-05, Final residual = 2.09509e-08, No Iterations 3
smoothSolver:  Solving for yWall, Initial residual = 1.04556e-05, Final residual = 2.08614e-08, No Iterations 3
smoothSolver:  Solving for yWall, Initial residual = 1.04021e-05, Final residual = 2.07743e-08, No Iterations 3
smoothSolver:  Solving for yWall, Initial residual = 1.035e-05, Final residual = 2.06896e-08, No Iterations 3
smoothSolver:  Solving for yWall, Initial residual = 1.02993e-05, Final residual = 2.06074e-08, No Iterations 3
smoothSolver:  Solving for yWall, Initial residual = 1.02501e-05, Final residual = 2.05277e-08, No Iterations 3
smoothSolver:  Solving for yWall, Initial residual = 1.02021e-05, Final residual = 2.04501e-08, No Iterations 3
smoothSolver:  Solving for yWall, Initial residual = 1.01555e-05, Final residual = 2.03749e-08, No Iterations 3
smoothSolver:  Solving for yWall, Initial residual = 1.01102e-05, Final residual = 2.03015e-08, No Iterations 3
smoothSolver:  Solving for yWall, Initial residual = 1.00659e-05, Final residual = 2.02302e-08, No Iterations 3
smoothSolver:  Solving for yWall, Initial residual = 1.00228e-05, Final residual = 2.01609e-08, No Iterations 3
smoothSolver:  Solving for yWall, Initial residual = 9.98064e-06, Final residual = 2.00937e-08, No Iterations 3
ft2 term: inactive
RAS
{
    RASModel        SpalartAllmaras;
    turbulence      on;
    printCoeffs     on;
    sigmaNut        0.66666;
    kappa           0.41;
    Cb1             0.1355;
    Cb2             0.622;
    Cw2             0.3;
    Cw3             2;
    Cv1             7.1;
    Cs              0.3;
    ck              0.07;
    ft2             false;
    Ct3             1.2;
    Ct4             0.5;
}

Creating references for RASModel variables : SpalartAllmaras
Allocating mean values of turbulence variables
Allocating Mean Primal Fields
No MRF models present

Found 1 adjoint solvers that allocate fields
Constructing objective functions 

Creating objective function : drag of type force
Selecting adjointRAS turbulence model adjointSpalartAllmaras
Zeroing ATC on 15682 cells

Updating primal-based fields of the adjoint turbulence model ...
ATCModel type standard
Zeroing ATC on 15682 cells

adjointSensitivity type : shapeFI
Found 0 adjoint solvers acting as single-sided constraints
Found 0 adjoint solvers acting as double-sided constraints
Found 1 active adjoint solvers
updateMethod type : BFGS
lineSearch type : none
No line search method specified. Proceeding with constant step
No convergence criterion defined for optimsation
It will run for 600 optimisation cycles 

Feasibility threshold is 1e-06

Starting time loop


* * * * * * * * * * * * * * * * *
Optimisation cycle 1
* * * * * * * * * * * * * * * * *

Resetting mean fields to zero
Resetting mean turbulent fields to zero
Solving equations for solver op1

Iteration 1|500
Time = 0.002

smoothSolver:  Solving for Ux, Initial residual = 0.0701355, Final residual = 0.000178337, No Iterations 3
smoothSolver:  Solving for Uy, Initial residual = 0.54926, Final residual = 0.000506319, No Iterations 3
smoothSolver:  Solving for Uz, Initial residual = 0.562815, Final residual = 0.00113069, No Iterations 3
GAMG:  Solving for p, Initial residual = 1, Final residual = 0.00969502, No Iterations 54
time step continuity errors : sum local = 8.15078e-08, global = 1.03229e-10, cumulative = 1.03229e-10
smoothSolver:  Solving for nuTilda, Initial residual = 1, Final residual = 0.00378031, No Iterations 3

drag : 0.00344505
ExecutionTime = 5.9 s  ClockTime = 6 s

Iteration 2|500
Time = 0.004

smoothSolver:  Solving for Ux, Initial residual = 0.046152, Final residual = 0.000161314, No Iterations 3
smoothSolver:  Solving for Uy, Initial residual = 0.431736, Final residual = 0.000466821, No Iterations 3
smoothSolver:  Solving for Uz, Initial residual = 0.477937, Final residual = 0.000718647, No Iterations 3
GAMG:  Solving for p, Initial residual = 0.271925, Final residual = 0.0026875, No Iterations 53
time step continuity errors : sum local = 4.34998e-08, global = -7.30119e-10, cumulative = -6.2689e-10
smoothSolver:  Solving for nuTilda, Initial residual = 0.00776067, Final residual = 3.90841e-05, No Iterations 3

drag : 0.00389495
ExecutionTime = 6.62 s  ClockTime = 6 s

Iteration 3|500
Time = 0.006

smoothSolver:  Solving for Ux, Initial residual = 0.0416853, Final residual = 9.82639e-05, No Iterations 3
smoothSolver:  Solving for Uy, Initial residual = 0.354811, Final residual = 0.000638666, No Iterations 3
smoothSolver:  Solving for Uz, Initial residual = 0.311088, Final residual = 0.000468265, No Iterations 3
GAMG:  Solving for p, Initial residual = 0.108817, Final residual = 0.00105452, No Iterations 33
time step continuity errors : sum local = 2.03625e-08, global = -9.88165e-10, cumulative = -1.61506e-09
smoothSolver:  Solving for nuTilda, Initial residual = 0.0046354, Final residual = 2.25195e-05, No Iterations 3

drag : 0.00411333
ExecutionTime = 7.22 s  ClockTime = 7 s

Iteration 4|500
Time = 0.008

smoothSolver:  Solving for Ux, Initial residual = 0.0335787, Final residual = 5.24857e-05, No Iterations 3
smoothSolver:  Solving for Uy, Initial residual = 0.24701, Final residual = 0.000612301, No Iterations 3
smoothSolver:  Solving for Uz, Initial residual = 0.194504, Final residual = 0.000364894, No Iterations 3
GAMG:  Solving for p, Initial residual = 0.178028, Final residual = 0.00172307, No Iterations 58
time step continuity errors : sum local = 3.00441e-08, global = -1.2142e-09, cumulative = -2.82926e-09
smoothSolver:  Solving for nuTilda, Initial residual = 0.00370905, Final residual = 1.7212e-05, No Iterations 3

drag : 0.00406587
ExecutionTime = 7.89 s  ClockTime = 8 s

Iteration 5|500
Time = 0.01

smoothSolver:  Solving for Ux, Initial residual = 0.0215508, Final residual = 3.32918e-05, No Iterations 3
smoothSolver:  Solving for Uy, Initial residual = 0.148987, Final residual = 0.000416842, No Iterations 3
smoothSolver:  Solving for Uz, Initial residual = 0.127672, Final residual = 0.000253297, No Iterations 3
GAMG:  Solving for p, Initial residual = 0.296093, Final residual = 0.0029588, No Iterations 60
time step continuity errors : sum local = 3.86347e-08, global = -1.53073e-09, cumulative = -4.35999e-09
smoothSolver:  Solving for nuTilda, Initial residual = 0.00335533, Final residual = 1.46769e-05, No Iterations 3

drag : 0.00377529
ExecutionTime = 8.62 s  ClockTime = 8 s

Iteration 6|500
Time = 0.012

smoothSolver:  Solving for Ux, Initial residual = 0.010194, Final residual = 2.22046e-05, No Iterations 3
smoothSolver:  Solving for Uy, Initial residual = 0.0821109, Final residual = 0.000232617, No Iterations 3
smoothSolver:  Solving for Uz, Initial residual = 0.0813378, Final residual = 0.000189798, No Iterations 3
GAMG:  Solving for p, Initial residual = 0.422151, Final residual = 0.00411243, No Iterations 57
time step continuity errors : sum local = 3.99973e-08, global = 1.61113e-09, cumulative = -2.74886e-09
smoothSolver:  Solving for nuTilda, Initial residual = 0.00303973, Final residual = 1.29771e-05, No Iterations 3

drag : 0.0033285
ExecutionTime = 9.5 s  ClockTime = 9 s

Iteration 7|500
Time = 0.014

smoothSolver:  Solving for Ux, Initial residual = 0.00814037, Final residual = 1.9003e-05, No Iterations 3
smoothSolver:  Solving for Uy, Initial residual = 0.0645066, Final residual = 0.000138048, No Iterations 3
smoothSolver:  Solving for Uz, Initial residual = 0.0715204, Final residual = 0.000166802, No Iterations 3
GAMG:  Solving for p, Initial residual = 0.30385, Final residual = 0.00298496, No Iterations 47
time step continuity errors : sum local = 3.98088e-08, global = 1.62117e-09, cumulative = -1.12769e-09
smoothSolver:  Solving for nuTilda, Initial residual = 0.00274301, Final residual = 1.21184e-05, No Iterations 3

drag : 0.00284682
ExecutionTime = 10.16 s  ClockTime = 10 s

Iteration 8|500
Time = 0.016

smoothSolver:  Solving for Ux, Initial residual = 0.0122551, Final residual = 1.98162e-05, No Iterations 3
smoothSolver:  Solving for Uy, Initial residual = 0.0911111, Final residual = 0.000177754, No Iterations 3
smoothSolver:  Solving for Uz, Initial residual = 0.0900399, Final residual = 0.00016066, No Iterations 3
GAMG:  Solving for p, Initial residual = 0.246104, Final residual = 0.00234962, No Iterations 33
time step continuity errors : sum local = 3.5796e-08, global = -4.81099e-10, cumulative = -1.60879e-09
smoothSolver:  Solving for nuTilda, Initial residual = 0.00250259, Final residual = 1.17898e-05, No Iterations 3

drag : 0.00243984
ExecutionTime = 10.62 s  ClockTime = 10 s

Iteration 9|500
Time = 0.018

smoothSolver:  Solving for Ux, Initial residual = 0.0126208, Final residual = 1.85236e-05, No Iterations 3
smoothSolver:  Solving for Uy, Initial residual = 0.108456, Final residual = 0.000229391, No Iterations 3
smoothSolver:  Solving for Uz, Initial residual = 0.0970463, Final residual = 0.000148088, No Iterations 3
GAMG:  Solving for p, Initial residual = 0.210837, Final residual = 0.00206439, No Iterations 37
time step continuity errors : sum local = 3.10484e-08, global = -1.53279e-09, cumulative = -3.14158e-09
smoothSolver:  Solving for nuTilda, Initial residual = 0.00234484, Final residual = 1.15018e-05, No Iterations 3

drag : 0.00216979
ExecutionTime = 11.11 s  ClockTime = 11 s

Iteration 10|500
Time = 0.02

smoothSolver:  Solving for Ux, Initial residual = 0.0101119, Final residual = 1.51743e-05, No Iterations 3
smoothSolver:  Solving for Uy, Initial residual = 0.103831, Final residual = 0.000226555, No Iterations 3
smoothSolver:  Solving for Uz, Initial residual = 0.0866788, Final residual = 0.000131266, No Iterations 3
GAMG:  Solving for p, Initial residual = 0.204535, Final residual = 0.00195757, No Iterations 47
time step continuity errors : sum local = 2.55295e-08, global = -1.1766e-09, cumulative = -4.31818e-09
smoothSolver:  Solving for nuTilda, Initial residual = 0.00223519, Final residual = 1.10182e-05, No Iterations 3

drag : 0.00205101
ExecutionTime = 11.69 s  ClockTime = 11 s

Iteration 11|500
Time = 0.022

smoothSolver:  Solving for Ux, Initial residual = 0.00663213, Final residual = 1.0868e-05, No Iterations 3
smoothSolver:  Solving for Uy, Initial residual = 0.0868655, Final residual = 0.000189925, No Iterations 3
smoothSolver:  Solving for Uz, Initial residual = 0.0701886, Final residual = 0.000109729, No Iterations 3
GAMG:  Solving for p, Initial residual = 0.266402, Final residual = 0.00254309, No Iterations 49
time step continuity errors : sum local = 2.5649e-08, global = -1.17793e-09, cumulative = -5.49611e-09
smoothSolver:  Solving for nuTilda, Initial residual = 0.00214483, Final residual = 1.0605e-05, No Iterations 3

drag : 0.00205779
ExecutionTime = 12.36 s  ClockTime = 12 s

Iteration 12|500
Time = 0.024

smoothSolver:  Solving for Ux, Initial residual = 0.00487222, Final residual = 9.40743e-06, No Iterations 3
smoothSolver:  Solving for Uy, Initial residual = 0.0740914, Final residual = 0.000170968, No Iterations 3
smoothSolver:  Solving for Uz, Initial residual = 0.0556745, Final residual = 9.28972e-05, No Iterations 3
GAMG:  Solving for p, Initial residual = 0.359555, Final residual = 0.00344927, No Iterations 47
time step continuity errors : sum local = 2.50411e-08, global = -1.1663e-09, cumulative = -6.66241e-09
smoothSolver:  Solving for nuTilda, Initial residual = 0.00206433, Final residual = 1.03193e-05, No Iterations 3

drag : 0.00214078
ExecutionTime = 13.02 s  ClockTime = 13 s

Iteration 13|500
Time = 0.026

smoothSolver:  Solving for Ux, Initial residual = 0.00514423, Final residual = 9.30276e-06, No Iterations 3
smoothSolver:  Solving for Uy, Initial residual = 0.0666131, Final residual = 0.000164057, No Iterations 3
smoothSolver:  Solving for Uz, Initial residual = 0.0471195, Final residual = 8.70083e-05, No Iterations 3
GAMG:  Solving for p, Initial residual = 0.374593, Final residual = 0.0037199, No Iterations 43
time step continuity errors : sum local = 2.30702e-08, global = 1.09555e-09, cumulative = -5.56686e-09
smoothSolver:  Solving for nuTilda, Initial residual = 0.00198181, Final residual = 1.0029e-05, No Iterations 3

drag : 0.00224738
ExecutionTime = 13.64 s  ClockTime = 13 s

Iteration 14|500
Time = 0.028

smoothSolver:  Solving for Ux, Initial residual = 0.00551616, Final residual = 9.16378e-06, No Iterations 3
smoothSolver:  Solving for Uy, Initial residual = 0.0616136, Final residual = 0.000160311, No Iterations 3
smoothSolver:  Solving for Uz, Initial residual = 0.0411224, Final residual = 8.23885e-05, No Iterations 3
GAMG:  Solving for p, Initial residual = 0.294543, Final residual = 0.00282168, No Iterations 39
time step continuity errors : sum local = 1.94385e-08, global = 4.43487e-10, cumulative = -5.12337e-09
smoothSolver:  Solving for nuTilda, Initial residual = 0.00190776, Final residual = 9.67912e-06, No Iterations 3

drag : 0.0023352
ExecutionTime = 14.28 s  ClockTime = 14 s

Iteration 15|500
Time = 0.03

smoothSolver:  Solving for Ux, Initial residual = 0.00505006, Final residual = 9.11567e-06, No Iterations 3
smoothSolver:  Solving for Uy, Initial residual = 0.0568292, Final residual = 0.00014983, No Iterations 3
smoothSolver:  Solving for Uz, Initial residual = 0.0387844, Final residual = 7.5455e-05, No Iterations 3
GAMG:  Solving for p, Initial residual = 0.285301, Final residual = 0.00280886, No Iterations 39
time step continuity errors : sum local = 1.89142e-08, global = 8.82778e-10, cumulative = -4.24059e-09
smoothSolver:  Solving for nuTilda, Initial residual = 0.00183899, Final residual = 9.2138e-06, No Iterations 3

drag : 0.00238075
ExecutionTime = 14.91 s  ClockTime = 15 s

Iteration 16|500
Time = 0.032

smoothSolver:  Solving for Ux, Initial residual = 0.00400303, Final residual = 8.95444e-06, No Iterations 3
smoothSolver:  Solving for Uy, Initial residual = 0.0498015, Final residual = 0.000133963, No Iterations 3
smoothSolver:  Solving for Uz, Initial residual = 0.0367912, Final residual = 6.5463e-05, No Iterations 3
GAMG:  Solving for p, Initial residual = 0.299993, Final residual = 0.00281858, No Iterations 41
time step continuity errors : sum local = 1.68551e-08, global = 7.90298e-10, cumulative = -3.45029e-09
smoothSolver:  Solving for nuTilda, Initial residual = 0.00178301, Final residual = 8.68991e-06, No Iterations 3

drag : 0.0023797
ExecutionTime = 15.48 s  ClockTime = 15 s

Iteration 17|500
Time = 0.034

smoothSolver:  Solving for Ux, Initial residual = 0.00309591, Final residual = 8.55227e-06, No Iterations 3
smoothSolver:  Solving for Uy, Initial residual = 0.0457007, Final residual = 0.00011811, No Iterations 3
smoothSolver:  Solving for Uz, Initial residual = 0.0355108, Final residual = 5.61974e-05, No Iterations 3
GAMG:  Solving for p, Initial residual = 0.327585, Final residual = 0.00321698, No Iterations 41
time step continuity errors : sum local = 1.59358e-08, global = 7.57378e-10, cumulative = -2.69292e-09
smoothSolver:  Solving for nuTilda, Initial residual = 0.00173304, Final residual = 8.16655e-06, No Iterations 3

drag : 0.002342
ExecutionTime = 16.25 s  ClockTime = 16 s

Iteration 18|500
Time = 0.036

smoothSolver:  Solving for Ux, Initial residual = 0.00273982, Final residual = 7.97133e-06, No Iterations 3
smoothSolver:  Solving for Uy, Initial residual = 0.0404051, Final residual = 9.90137e-05, No Iterations 3
smoothSolver:  Solving for Uz, Initial residual = 0.0339933, Final residual = 4.90884e-05, No Iterations 3
GAMG:  Solving for p, Initial residual = 0.329081, Final residual = 0.00328659, No Iterations 40
time step continuity errors : sum local = 1.46239e-08, global = -8.21184e-10, cumulative = -3.5141e-09
smoothSolver:  Solving for nuTilda, Initial residual = 0.00169128, Final residual = 7.7126e-06, No Iterations 3

drag : 0.00228485
ExecutionTime = 16.83 s  ClockTime = 17 s

Iteration 19|500
Time = 0.038

smoothSolver:  Solving for Ux, Initial residual = 0.00279281, Final residual = 7.38147e-06, No Iterations 3
smoothSolver:  Solving for Uy, Initial residual = 0.0360209, Final residual = 8.71029e-05, No Iterations 3
smoothSolver:  Solving for Uz, Initial residual = 0.0321233, Final residual = 4.73508e-05, No Iterations 3
GAMG:  Solving for p, Initial residual = 0.285926, Final residual = 0.00274869, No Iterations 38
time step continuity errors : sum local = 1.3278e-08, global = 6.43855e-10, cumulative = -2.87025e-09
smoothSolver:  Solving for nuTilda, Initial residual = 0.00165872, Final residual = 7.3585e-06, No Iterations 3

drag : 0.00222576
ExecutionTime = 17.44 s  ClockTime = 17 s

Iteration 20|500
Time = 0.04

smoothSolver:  Solving for Ux, Initial residual = 0.00280365, Final residual = 6.81161e-06, No Iterations 3
smoothSolver:  Solving for Uy, Initial residual = 0.033102, Final residual = 8.09412e-05, No Iterations 3
smoothSolver:  Solving for Uz, Initial residual = 0.0301739, Final residual = 4.90232e-05, No Iterations 3
GAMG:  Solving for p, Initial residual = 0.260028, Final residual = 0.00256001, No Iterations 35
time step continuity errors : sum local = 1.27581e-08, global = -5.88352e-10, cumulative = -3.4586e-09
smoothSolver:  Solving for nuTilda, Initial residual = 0.00162996, Final residual = 7.07949e-06, No Iterations 3

drag : 0.00217755
ExecutionTime = 18.04 s  ClockTime = 18 s

Iteration 21|500
Time = 0.042

smoothSolver:  Solving for Ux, Initial residual = 0.0026669, Final residual = 6.34901e-06, No Iterations 3
smoothSolver:  Solving for Uy, Initial residual = 0.0306, Final residual = 7.7935e-05, No Iterations 3
smoothSolver:  Solving for Uz, Initial residual = 0.0280171, Final residual = 4.99914e-05, No Iterations 3
GAMG:  Solving for p, Initial residual = 0.237912, Final residual = 0.00229967, No Iterations 35
time step continuity errors : sum local = 1.13328e-08, global = -3.72753e-10, cumulative = -3.83135e-09
smoothSolver:  Solving for nuTilda, Initial residual = 0.00160496, Final residual = 6.87166e-06, No Iterations 3

drag : 0.00214614
ExecutionTime = 18.57 s  ClockTime = 18 s

Iteration 22|500
Time = 0.044

smoothSolver:  Solving for Ux, Initial residual = 0.00242349, Final residual = 5.863e-06, No Iterations 3
smoothSolver:  Solving for Uy, Initial residual = 0.0277683, Final residual = 7.24466e-05, No Iterations 3
smoothSolver:  Solving for Uz, Initial residual = 0.0256674, Final residual = 4.7007e-05, No Iterations 3
GAMG:  Solving for p, Initial residual = 0.224948, Final residual = 0.00222115, No Iterations 37
time step continuity errors : sum local = 1.04438e-08, global = -4.62206e-10, cumulative = -4.29356e-09
smoothSolver:  Solving for nuTilda, Initial residual = 0.00158583, Final residual = 6.74851e-06, No Iterations 3

drag : 0.0021306
ExecutionTime = 19.12 s  ClockTime = 19 s

Iteration 23|500
Time = 0.046

smoothSolver:  Solving for Ux, Initial residual = 0.00212345, Final residual = 5.31815e-06, No Iterations 3
smoothSolver:  Solving for Uy, Initial residual = 0.0243905, Final residual = 6.56908e-05, No Iterations 3
smoothSolver:  Solving for Uz, Initial residual = 0.0239491, Final residual = 4.31593e-05, No Iterations 3
GAMG:  Solving for p, Initial residual = 0.225823, Final residual = 0.00214718, No Iterations 39
time step continuity errors : sum local = 9.32347e-09, global = -4.21474e-10, cumulative = -4.71503e-09
smoothSolver:  Solving for nuTilda, Initial residual = 0.00156652, Final residual = 6.66692e-06, No Iterations 3

drag : 0.0021258
ExecutionTime = 19.8 s  ClockTime = 20 s

Iteration 24|500
Time = 0.048

smoothSolver:  Solving for Ux, Initial residual = 0.0019042, Final residual = 4.76611e-06, No Iterations 3
smoothSolver:  Solving for Uy, Initial residual = 0.0232909, Final residual = 5.77057e-05, No Iterations 3
smoothSolver:  Solving for Uz, Initial residual = 0.0230882, Final residual = 3.77831e-05, No Iterations 3
GAMG:  Solving for p, Initial residual = 0.233224, Final residual = 0.00231989, No Iterations 38
time step continuity errors : sum local = 9.13771e-09, global = 4.55019e-10, cumulative = -4.26001e-09
smoothSolver:  Solving for nuTilda, Initial residual = 0.00154396, Final residual = 6.58778e-06, No Iterations 3

drag : 0.00212528
ExecutionTime = 20.33 s  ClockTime = 20 s

Iteration 25|500
Time = 0.05

smoothSolver:  Solving for Ux, Initial residual = 0.00177092, Final residual = 4.18709e-06, No Iterations 3
smoothSolver:  Solving for Uy, Initial residual = 0.0218263, Final residual = 4.86209e-05, No Iterations 3
smoothSolver:  Solving for Uz, Initial residual = 0.0217965, Final residual = 3.26496e-05, No Iterations 3
GAMG:  Solving for p, Initial residual = 0.238596, Final residual = 0.00235916, No Iterations 36
time step continuity errors : sum local = 8.40258e-09, global = -3.9043e-10, cumulative = -4.65044e-09
smoothSolver:  Solving for nuTilda, Initial residual = 0.00151535, Final residual = 6.50954e-06, No Iterations 3

drag : 0.0021236
ExecutionTime = 20.92 s  ClockTime = 21 s

Iteration 26|500
Time = 0.052

smoothSolver:  Solving for Ux, Initial residual = 0.00162925, Final residual = 3.68715e-06, No Iterations 3
smoothSolver:  Solving for Uy, Initial residual = 0.0195385, Final residual = 3.9788e-05, No Iterations 3
smoothSolver:  Solving for Uz, Initial residual = 0.0200023, Final residual = 2.95783e-05, No Iterations 3
GAMG:  Solving for p, Initial residual = 0.239138, Final residual = 0.0023802, No Iterations 35
time step continuity errors : sum local = 7.74059e-09, global = 3.76792e-10, cumulative = -4.27365e-09
smoothSolver:  Solving for nuTilda, Initial residual = 0.00147983, Final residual = 6.3937e-06, No Iterations 3

drag : 0.00211731
ExecutionTime = 21.48 s  ClockTime = 21 s

Iteration 27|500
Time = 0.054

smoothSolver:  Solving for Ux, Initial residual = 0.00146585, Final residual = 3.24063e-06, No Iterations 3
smoothSolver:  Solving for Uy, Initial residual = 0.0168072, Final residual = 3.27885e-05, No Iterations 3
smoothSolver:  Solving for Uz, Initial residual = 0.0180361, Final residual = 2.74925e-05, No Iterations 3
GAMG:  Solving for p, Initial residual = 0.235928, Final residual = 0.00233757, No Iterations 34
time step continuity errors : sum local = 7.01219e-09, global = 2.97231e-10, cumulative = -3.97642e-09
smoothSolver:  Solving for nuTilda, Initial residual = 0.00143581, Final residual = 6.2651e-06, No Iterations 3

drag : 0.00210549
ExecutionTime = 21.99 s  ClockTime = 22 s

Iteration 28|500
Time = 0.056

smoothSolver:  Solving for Ux, Initial residual = 0.00131307, Final residual = 2.84601e-06, No Iterations 3
smoothSolver:  Solving for Uy, Initial residual = 0.0140728, Final residual = 2.85071e-05, No Iterations 3
smoothSolver:  Solving for Uz, Initial residual = 0.0161485, Final residual = 2.52808e-05, No Iterations 3
GAMG:  Solving for p, Initial residual = 0.230931, Final residual = 0.00219112, No Iterations 34
time step continuity errors : sum local = 6.15491e-09, global = 1.65231e-10, cumulative = -3.81119e-09
smoothSolver:  Solving for nuTilda, Initial residual = 0.00138828, Final residual = 6.14019e-06, No Iterations 3

drag : 0.00208942
ExecutionTime = 22.53 s  ClockTime = 22 s

Iteration 29|500
Time = 0.058

smoothSolver:  Solving for Ux, Initial residual = 0.00116109, Final residual = 2.5244e-06, No Iterations 3
smoothSolver:  Solving for Uy, Initial residual = 0.0118188, Final residual = 2.60428e-05, No Iterations 3
smoothSolver:  Solving for Uz, Initial residual = 0.0147607, Final residual = 2.33339e-05, No Iterations 3
GAMG:  Solving for p, Initial residual = 0.221748, Final residual = 0.00220953, No Iterations 34
time step continuity errors : sum local = 5.89281e-09, global = -1.25303e-10, cumulative = -3.93649e-09
smoothSolver:  Solving for nuTilda, Initial residual = 0.00134303, Final residual = 6.0164e-06, No Iterations 3

drag : 0.00207153
ExecutionTime = 23.03 s  ClockTime = 23 s

Iteration 30|500
Time = 0.06

smoothSolver:  Solving for Ux, Initial residual = 0.00105529, Final residual = 2.21761e-06, No Iterations 3
smoothSolver:  Solving for Uy, Initial residual = 0.0102822, Final residual = 2.42881e-05, No Iterations 3
smoothSolver:  Solving for Uz, Initial residual = 0.0139885, Final residual = 2.07091e-05, No Iterations 3
GAMG:  Solving for p, Initial residual = 0.211756, Final residual = 0.00206991, No Iterations 35
time step continuity errors : sum local = 5.31421e-09, global = 1.99837e-10, cumulative = -3.73665e-09
smoothSolver:  Solving for nuTilda, Initial residual = 0.001302, Final residual = 5.87801e-06, No Iterations 3

drag : 0.00205423
ExecutionTime = 23.59 s  ClockTime = 23 s

Iteration 31|500
Time = 0.062

smoothSolver:  Solving for Ux, Initial residual = 0.00102351, Final residual = 1.95137e-06, No Iterations 3
smoothSolver:  Solving for Uy, Initial residual = 0.00979635, Final residual = 2.23445e-05, No Iterations 3
smoothSolver:  Solving for Uz, Initial residual = 0.0136543, Final residual = 1.79775e-05, No Iterations 3
GAMG:  Solving for p, Initial residual = 0.199929, Final residual = 0.00186081, No Iterations 38
time step continuity errors : sum local = 4.63835e-09, global = 1.83058e-10, cumulative = -3.55359e-09
smoothSolver:  Solving for nuTilda, Initial residual = 0.00126489, Final residual = 5.72193e-06, No Iterations 3

drag : 0.00203953
ExecutionTime = 24.31 s  ClockTime = 24 s

Iteration 32|500
Time = 0.064

smoothSolver:  Solving for Ux, Initial residual = 0.00100659, Final residual = 1.73482e-06, No Iterations 3
smoothSolver:  Solving for Uy, Initial residual = 0.00977203, Final residual = 2.02779e-05, No Iterations 3
smoothSolver:  Solving for Uz, Initial residual = 0.0132902, Final residual = 1.63735e-05, No Iterations 3
GAMG:  Solving for p, Initial residual = 0.189204, Final residual = 0.00177747, No Iterations 38
time step continuity errors : sum local = 4.31425e-09, global = 1.74728e-10, cumulative = -3.37887e-09
smoothSolver:  Solving for nuTilda, Initial residual = 0.00123088, Final residual = 5.55459e-06, No Iterations 3

drag : 0.00202825
ExecutionTime = 25 s  ClockTime = 25 s

Iteration 33|500
Time = 0.066

smoothSolver:  Solving for Ux, Initial residual = 0.000985795, Final residual = 1.56596e-06, No Iterations 3
smoothSolver:  Solving for Uy, Initial residual = 0.00957332, Final residual = 1.79322e-05, No Iterations 3
smoothSolver:  Solving for Uz, Initial residual = 0.012765, Final residual = 1.54815e-05, No Iterations 3
GAMG:  Solving for p, Initial residual = 0.180625, Final residual = 0.00174703, No Iterations 36
time step continuity errors : sum local = 4.12081e-09, global = 1.66351e-10, cumulative = -3.21252e-09
smoothSolver:  Solving for nuTilda, Initial residual = 0.0011999, Final residual = 5.39051e-06, No Iterations 3

drag : 0.00202011
ExecutionTime = 25.57 s  ClockTime = 25 s

Iteration 34|500
Time = 0.068

smoothSolver:  Solving for Ux, Initial residual = 0.000948478, Final residual = 1.44362e-06, No Iterations 3
smoothSolver:  Solving for Uy, Initial residual = 0.00909363, Final residual = 1.58486e-05, No Iterations 3
smoothSolver:  Solving for Uz, Initial residual = 0.0121358, Final residual = 1.5183e-05, No Iterations 3
GAMG:  Solving for p, Initial residual = 0.172827, Final residual = 0.00170662, No Iterations 34
time step continuity errors : sum local = 3.9094e-09, global = -1.67046e-10, cumulative = -3.37956e-09
smoothSolver:  Solving for nuTilda, Initial residual = 0.00117015, Final residual = 5.23047e-06, No Iterations 3

drag : 0.00201439
ExecutionTime = 26.18 s  ClockTime = 26 s

Iteration 35|500
Time = 0.07

smoothSolver:  Solving for Ux, Initial residual = 0.000895605, Final residual = 1.34873e-06, No Iterations 3
smoothSolver:  Solving for Uy, Initial residual = 0.00840559, Final residual = 1.41602e-05, No Iterations 3
smoothSolver:  Solving for Uz, Initial residual = 0.0113663, Final residual = 1.44607e-05, No Iterations 3
GAMG:  Solving for p, Initial residual = 0.163609, Final residual = 0.00157419, No Iterations 34
time step continuity errors : sum local = 3.50066e-09, global = -1.43732e-10, cumulative = -3.52329e-09
smoothSolver:  Solving for nuTilda, Initial residual = 0.00114132, Final residual = 5.0692e-06, No Iterations 3

drag : 0.00201014
ExecutionTime = 26.85 s  ClockTime = 27 s

Iteration 36|500
Time = 0.072

smoothSolver:  Solving for Ux, Initial residual = 0.000828361, Final residual = 1.25985e-06, No Iterations 3
smoothSolver:  Solving for Uy, Initial residual = 0.00757761, Final residual = 1.28025e-05, No Iterations 3
smoothSolver:  Solving for Uz, Initial residual = 0.0106503, Final residual = 1.37519e-05, No Iterations 3
GAMG:  Solving for p, Initial residual = 0.154399, Final residual = 0.00149436, No Iterations 34
time step continuity errors : sum local = 3.21875e-09, global = -1.27786e-10, cumulative = -3.65108e-09
smoothSolver:  Solving for nuTilda, Initial residual = 0.00111299, Final residual = 4.91338e-06, No Iterations 3

drag : 0.00200646
ExecutionTime = 27.48 s  ClockTime = 27 s

Iteration 37|500
Time = 0.074

smoothSolver:  Solving for Ux, Initial residual = 0.000758232, Final residual = 1.18145e-06, No Iterations 3
smoothSolver:  Solving for Uy, Initial residual = 0.00666814, Final residual = 1.15296e-05, No Iterations 3
smoothSolver:  Solving for Uz, Initial residual = 0.0098651, Final residual = 1.29067e-05, No Iterations 3
GAMG:  Solving for p, Initial residual = 0.146135, Final residual = 0.00143432, No Iterations 34
time step continuity errors : sum local = 2.9851e-09, global = -1.17267e-10, cumulative = -3.76835e-09
smoothSolver:  Solving for nuTilda, Initial residual = 0.00108453, Final residual = 4.76328e-06, No Iterations 3

drag : 0.00200269
ExecutionTime = 28.18 s  ClockTime = 28 s

Iteration 38|500
Time = 0.076

smoothSolver:  Solving for Ux, Initial residual = 0.000686724, Final residual = 1.12594e-06, No Iterations 3
smoothSolver:  Solving for Uy, Initial residual = 0.00576293, Final residual = 1.0578e-05, No Iterations 3
smoothSolver:  Solving for Uz, Initial residual = 0.00908283, Final residual = 1.18717e-05, No Iterations 3
GAMG:  Solving for p, Initial residual = 0.139036, Final residual = 0.0013747, No Iterations 35
time step continuity errors : sum local = 2.76242e-09, global = 1.01943e-10, cumulative = -3.6664e-09
smoothSolver:  Solving for nuTilda, Initial residual = 0.00105628, Final residual = 4.62082e-06, No Iterations 3

drag : 0.00199851
ExecutionTime = 28.68 s  ClockTime = 28 s

Iteration 39|500
Time = 0.078

smoothSolver:  Solving for Ux, Initial residual = 0.000616049, Final residual = 1.0703e-06, No Iterations 3
smoothSolver:  Solving for Uy, Initial residual = 0.00499972, Final residual = 9.64126e-06, No Iterations 3
smoothSolver:  Solving for Uz, Initial residual = 0.00846475, Final residual = 1.10564e-05, No Iterations 3
GAMG:  Solving for p, Initial residual = 0.132571, Final residual = 0.00125788, No Iterations 36
time step continuity errors : sum local = 2.44282e-09, global = -9.12404e-11, cumulative = -3.75764e-09
smoothSolver:  Solving for nuTilda, Initial residual = 0.00102847, Final residual = 4.48647e-06, No Iterations 3

drag : 0.00199381
ExecutionTime = 29.16 s  ClockTime = 29 s

Iteration 40|500
Time = 0.08

smoothSolver:  Solving for Ux, Initial residual = 0.000550079, Final residual = 1.00991e-06, No Iterations 3
smoothSolver:  Solving for Uy, Initial residual = 0.00443853, Final residual = 8.93349e-06, No Iterations 3
smoothSolver:  Solving for Uz, Initial residual = 0.00790226, Final residual = 1.03419e-05, No Iterations 3
GAMG:  Solving for p, Initial residual = 0.12626, Final residual = 0.0012268, No Iterations 36
time step continuity errors : sum local = 2.3075e-09, global = -7.81514e-11, cumulative = -3.8358e-09
smoothSolver:  Solving for nuTilda, Initial residual = 0.00100253, Final residual = 4.35142e-06, No Iterations 3

drag : 0.00198869
ExecutionTime = 29.68 s  ClockTime = 29 s

Iteration 41|500
Time = 0.082

smoothSolver:  Solving for Ux, Initial residual = 0.000498351, Final residual = 9.53324e-07, No Iterations 3
smoothSolver:  Solving for Uy, Initial residual = 0.00409686, Final residual = 8.35753e-06, No Iterations 3
smoothSolver:  Solving for Uz, Initial residual = 0.00750055, Final residual = 9.68177e-06, No Iterations 3
GAMG:  Solving for p, Initial residual = 0.120098, Final residual = 0.00115517, No Iterations 36
time step continuity errors : sum local = 2.10882e-09, global = -2.73165e-11, cumulative = -3.86311e-09
smoothSolver:  Solving for nuTilda, Initial residual = 0.000978291, Final residual = 4.21009e-06, No Iterations 3

drag : 0.00198333
ExecutionTime = 30.19 s  ClockTime = 30 s

Iteration 42|500
Time = 0.084

smoothSolver:  Solving for Ux, Initial residual = 0.000461845, Final residual = 9.00593e-07, No Iterations 3
smoothSolver:  Solving for Uy, Initial residual = 0.00384957, Final residual = 7.89794e-06, No Iterations 3
smoothSolver:  Solving for Uz, Initial residual = 0.0071197, Final residual = 9.19817e-06, No Iterations 3
GAMG:  Solving for p, Initial residual = 0.115274, Final residual = 0.00110848, No Iterations 36
time step continuity errors : sum local = 1.96889e-09, global = 9.9008e-12, cumulative = -3.85321e-09
smoothSolver:  Solving for nuTilda, Initial residual = 0.000954955, Final residual = 4.06233e-06, No Iterations 3

drag : 0.00197795
ExecutionTime = 30.68 s  ClockTime = 30 s

Iteration 43|500
Time = 0.086

smoothSolver:  Solving for Ux, Initial residual = 0.000433491, Final residual = 8.54319e-07, No Iterations 3
smoothSolver:  Solving for Uy, Initial residual = 0.00365101, Final residual = 7.48699e-06, No Iterations 3
smoothSolver:  Solving for Uz, Initial residual = 0.00679685, Final residual = 8.76583e-06, No Iterations 3
GAMG:  Solving for p, Initial residual = 0.110796, Final residual = 0.00105981, No Iterations 36
time step continuity errors : sum local = 1.83508e-09, global = 1.6112e-11, cumulative = -3.8371e-09
smoothSolver:  Solving for nuTilda, Initial residual = 0.000930791, Final residual = 3.90857e-06, No Iterations 3

drag : 0.00197271
ExecutionTime = 31.2 s  ClockTime = 31 s

Iteration 44|500
Time = 0.088

smoothSolver:  Solving for Ux, Initial residual = 0.000410559, Final residual = 8.14561e-07, No Iterations 3
smoothSolver:  Solving for Uy, Initial residual = 0.00348331, Final residual = 7.20002e-06, No Iterations 3
smoothSolver:  Solving for Uz, Initial residual = 0.00649778, Final residual = 8.58587e-06, No Iterations 3
GAMG:  Solving for p, Initial residual = 0.10649, Final residual = 0.00101668, No Iterations 36
time step continuity errors : sum local = 1.72109e-09, global = 1.95376e-11, cumulative = -3.81756e-09
smoothSolver:  Solving for nuTilda, Initial residual = 0.000906716, Final residual = 3.74973e-06, No Iterations 3

drag : 0.00196767
ExecutionTime = 31.7 s  ClockTime = 32 s

Iteration 45|500
Time = 0.09

smoothSolver:  Solving for Ux, Initial residual = 0.000390709, Final residual = 7.83751e-07, No Iterations 3
smoothSolver:  Solving for Uy, Initial residual = 0.00332956, Final residual = 6.97342e-06, No Iterations 3
smoothSolver:  Solving for Uz, Initial residual = 0.00624741, Final residual = 8.56733e-06, No Iterations 3
GAMG:  Solving for p, Initial residual = 0.101794, Final residual = 0.00100273, No Iterations 36
time step continuity errors : sum local = 1.6652e-09, global = 2.39542e-11, cumulative = -3.79361e-09
smoothSolver:  Solving for nuTilda, Initial residual = 0.000881776, Final residual = 3.58843e-06, No Iterations 3

drag : 0.00196281
ExecutionTime = 32.2 s  ClockTime = 32 s

Iteration 46|500
Time = 0.092

smoothSolver:  Solving for Ux, Initial residual = 0.000371052, Final residual = 7.61735e-07, No Iterations 3
smoothSolver:  Solving for Uy, Initial residual = 0.00314355, Final residual = 6.71056e-06, No Iterations 3
smoothSolver:  Solving for Uz, Initial residual = 0.00595099, Final residual = 8.53383e-06, No Iterations 3
GAMG:  Solving for p, Initial residual = 0.0966188, Final residual = 0.000949725, No Iterations 37
time step continuity errors : sum local = 1.55048e-09, global = -1.30783e-11, cumulative = -3.80669e-09
smoothSolver:  Solving for nuTilda, Initial residual = 0.000857904, Final residual = 3.43776e-06, No Iterations 3

drag : 0.00195809
ExecutionTime = 32.71 s  ClockTime = 33 s

Iteration 47|500
Time = 0.094

smoothSolver:  Solving for Ux, Initial residual = 0.000349678, Final residual = 7.38331e-07, No Iterations 3
smoothSolver:  Solving for Uy, Initial residual = 0.00291842, Final residual = 6.37677e-06, No Iterations 3
smoothSolver:  Solving for Uz, Initial residual = 0.00560378, Final residual = 8.2657e-06, No Iterations 3
GAMG:  Solving for p, Initial residual = 0.0918589, Final residual = 0.00088504, No Iterations 38
time step continuity errors : sum local = 1.42213e-09, global = 1.91667e-11, cumulative = -3.78752e-09
smoothSolver:  Solving for nuTilda, Initial residual = 0.000834514, Final residual = 3.30263e-06, No Iterations 3

drag : 0.00195347
ExecutionTime = 33.26 s  ClockTime = 33 s

Iteration 48|500
Time = 0.096

smoothSolver:  Solving for Ux, Initial residual = 0.000331001, Final residual = 7.17916e-07, No Iterations 3
smoothSolver:  Solving for Uy, Initial residual = 0.00268438, Final residual = 6.00471e-06, No Iterations 3
smoothSolver:  Solving for Uz, Initial residual = 0.00529193, Final residual = 7.9322e-06, No Iterations 3
GAMG:  Solving for p, Initial residual = 0.0872014, Final residual = 0.00086295, No Iterations 38
time step continuity errors : sum local = 1.36653e-09, global = 1.68481e-11, cumulative = -3.77067e-09
smoothSolver:  Solving for nuTilda, Initial residual = 0.000812515, Final residual = 3.18506e-06, No Iterations 3

drag : 0.00194896
ExecutionTime = 33.77 s  ClockTime = 34 s

Iteration 49|500
Time = 0.098

smoothSolver:  Solving for Ux, Initial residual = 0.000313018, Final residual = 6.96109e-07, No Iterations 3
smoothSolver:  Solving for Uy, Initial residual = 0.00248351, Final residual = 5.59333e-06, No Iterations 3
smoothSolver:  Solving for Uz, Initial residual = 0.00497367, Final residual = 7.54377e-06, No Iterations 3
GAMG:  Solving for p, Initial residual = 0.0824247, Final residual = 0.000797511, No Iterations 39
time step continuity errors : sum local = 1.24577e-09, global = -5.84104e-12, cumulative = -3.77651e-09
smoothSolver:  Solving for nuTilda, Initial residual = 0.000793215, Final residual = 3.08516e-06, No Iterations 3

drag : 0.00194459
ExecutionTime = 34.33 s  ClockTime = 34 s

Iteration 50|500
Time = 0.1

smoothSolver:  Solving for Ux, Initial residual = 0.000297257, Final residual = 6.74611e-07, No Iterations 3
smoothSolver:  Solving for Uy, Initial residual = 0.00230849, Final residual = 5.17271e-06, No Iterations 3
smoothSolver:  Solving for Uz, Initial residual = 0.00469517, Final residual = 7.26043e-06, No Iterations 3
GAMG:  Solving for p, Initial residual = 0.0781033, Final residual = 0.000751312, No Iterations 39
time step continuity errors : sum local = 1.15755e-09, global = -9.05674e-12, cumulative = -3.78557e-09
smoothSolver:  Solving for nuTilda, Initial residual = 0.000777609, Final residual = 2.99843e-06, No Iterations 3

drag : 0.00194038
Averaging fields
ExecutionTime = 34.89 s  ClockTime = 35 s

Iteration 51|500
Time = 0.102

smoothSolver:  Solving for Ux, Initial residual = 0.000281573, Final residual = 6.53097e-07, No Iterations 3
smoothSolver:  Solving for Uy, Initial residual = 0.00217256, Final residual = 4.77887e-06, No Iterations 3
smoothSolver:  Solving for Uz, Initial residual = 0.00443406, Final residual = 7.03559e-06, No Iterations 3
GAMG:  Solving for p, Initial residual = 0.0741662, Final residual = 0.000732952, No Iterations 38
time step continuity errors : sum local = 1.11358e-09, global = 1.97253e-11, cumulative = -3.76584e-09
smoothSolver:  Solving for nuTilda, Initial residual = 0.000765784, Final residual = 2.92085e-06, No Iterations 3

drag : 0.00193638
Averaging fields
ExecutionTime = 35.42 s  ClockTime = 35 s

Iteration 52|500
Time = 0.104

smoothSolver:  Solving for Ux, Initial residual = 0.000268635, Final residual = 6.31518e-07, No Iterations 3
smoothSolver:  Solving for Uy, Initial residual = 0.00205764, Final residual = 4.45809e-06, No Iterations 3
smoothSolver:  Solving for Uz, Initial residual = 0.00427492, Final residual = 6.78357e-06, No Iterations 3
GAMG:  Solving for p, Initial residual = 0.0706075, Final residual = 0.000685461, No Iterations 38
time step continuity errors : sum local = 1.02642e-09, global = 1.32498e-11, cumulative = -3.75259e-09
smoothSolver:  Solving for nuTilda, Initial residual = 0.000757194, Final residual = 2.86181e-06, No Iterations 3

drag : 0.00193265
Averaging fields
ExecutionTime = 35.95 s  ClockTime = 36 s

Iteration 53|500
Time = 0.106

smoothSolver:  Solving for Ux, Initial residual = 0.00025821, Final residual = 6.07254e-07, No Iterations 3
smoothSolver:  Solving for Uy, Initial residual = 0.00195585, Final residual = 4.21033e-06, No Iterations 3
smoothSolver:  Solving for Uz, Initial residual = 0.00412553, Final residual = 6.52075e-06, No Iterations 3
GAMG:  Solving for p, Initial residual = 0.0677904, Final residual = 0.000645999, No Iterations 38
time step continuity errors : sum local = 9.53431e-10, global = 5.83183e-12, cumulative = -3.74676e-09
smoothSolver:  Solving for nuTilda, Initial residual = 0.000751761, Final residual = 2.81921e-06, No Iterations 3

drag : 0.00192919
Averaging fields
ExecutionTime = 36.5 s  ClockTime = 36 s

Iteration 54|500
Time = 0.108

smoothSolver:  Solving for Ux, Initial residual = 0.000247911, Final residual = 5.85468e-07, No Iterations 3
smoothSolver:  Solving for Uy, Initial residual = 0.00186748, Final residual = 3.99426e-06, No Iterations 3
smoothSolver:  Solving for Uz, Initial residual = 0.00396553, Final residual = 6.21273e-06, No Iterations 3
GAMG:  Solving for p, Initial residual = 0.0652763, Final residual = 0.000639135, No Iterations 38
time step continuity errors : sum local = 9.30072e-10, global = 9.74317e-13, cumulative = -3.74579e-09
smoothSolver:  Solving for nuTilda, Initial residual = 0.000749369, Final residual = 2.79416e-06, No Iterations 3

drag : 0.00192601
Averaging fields
ExecutionTime = 37.04 s  ClockTime = 37 s

Iteration 55|500
Time = 0.11

smoothSolver:  Solving for Ux, Initial residual = 0.000237683, Final residual = 5.63412e-07, No Iterations 3
smoothSolver:  Solving for Uy, Initial residual = 0.00177887, Final residual = 3.78298e-06, No Iterations 3
smoothSolver:  Solving for Uz, Initial residual = 0.00380034, Final residual = 5.88566e-06, No Iterations 3
GAMG:  Solving for p, Initial residual = 0.0627781, Final residual = 0.000603768, No Iterations 39
time step continuity errors : sum local = 8.66528e-10, global = 7.90408e-15, cumulative = -3.74578e-09
smoothSolver:  Solving for nuTilda, Initial residual = 0.000749591, Final residual = 2.78757e-06, No Iterations 3

drag : 0.0019231
Averaging fields
ExecutionTime = 37.57 s  ClockTime = 37 s

Iteration 56|500
Time = 0.112

smoothSolver:  Solving for Ux, Initial residual = 0.000228942, Final residual = 5.40368e-07, No Iterations 3
smoothSolver:  Solving for Uy, Initial residual = 0.00169713, Final residual = 3.58808e-06, No Iterations 3
smoothSolver:  Solving for Uz, Initial residual = 0.00365831, Final residual = 5.55567e-06, No Iterations 3
GAMG:  Solving for p, Initial residual = 0.0600816, Final residual = 0.00058603, No Iterations 39
time step continuity errors : sum local = 8.30084e-10, global = 6.93645e-13, cumulative = -3.74509e-09
smoothSolver:  Solving for nuTilda, Initial residual = 0.000751736, Final residual = 2.79514e-06, No Iterations 3

drag : 0.00192043
Averaging fields
ExecutionTime = 38.14 s  ClockTime = 38 s

Iteration 57|500
Time = 0.114

smoothSolver:  Solving for Ux, Initial residual = 0.000219745, Final residual = 5.16644e-07, No Iterations 3
smoothSolver:  Solving for Uy, Initial residual = 0.00161064, Final residual = 3.37559e-06, No Iterations 3
smoothSolver:  Solving for Uz, Initial residual = 0.00351185, Final residual = 5.27343e-06, No Iterations 3
GAMG:  Solving for p, Initial residual = 0.057504, Final residual = 0.000574521, No Iterations 38
time step continuity errors : sum local = 8.0441e-10, global = -7.16049e-12, cumulative = -3.75225e-09
smoothSolver:  Solving for nuTilda, Initial residual = 0.000755284, Final residual = 2.81384e-06, No Iterations 3

drag : 0.00191792
Averaging fields
ExecutionTime = 38.67 s  ClockTime = 38 s

Iteration 58|500
Time = 0.116

smoothSolver:  Solving for Ux, Initial residual = 0.000208938, Final residual = 4.91603e-07, No Iterations 3
smoothSolver:  Solving for Uy, Initial residual = 0.00151204, Final residual = 3.14776e-06, No Iterations 3
smoothSolver:  Solving for Uz, Initial residual = 0.00333283, Final residual = 5.04791e-06, No Iterations 3
GAMG:  Solving for p, Initial residual = 0.0548072, Final residual = 0.000524749, No Iterations 38
time step continuity errors : sum local = 7.2703e-10, global = -5.83642e-12, cumulative = -3.75808e-09
smoothSolver:  Solving for nuTilda, Initial residual = 0.000759856, Final residual = 2.83763e-06, No Iterations 3

drag : 0.00191553
Averaging fields
ExecutionTime = 39.21 s  ClockTime = 39 s

Iteration 59|500
Time = 0.118

smoothSolver:  Solving for Ux, Initial residual = 0.000199169, Final residual = 4.68019e-07, No Iterations 3
smoothSolver:  Solving for Uy, Initial residual = 0.00141161, Final residual = 2.92454e-06, No Iterations 3
smoothSolver:  Solving for Uz, Initial residual = 0.00318328, Final residual = 4.87144e-06, No Iterations 3
GAMG:  Solving for p, Initial residual = 0.0522158, Final residual = 0.000514104, No Iterations 37
time step continuity errors : sum local = 7.05646e-10, global = -3.63554e-12, cumulative = -3.76172e-09
smoothSolver:  Solving for nuTilda, Initial residual = 0.00076466, Final residual = 2.86315e-06, No Iterations 3

drag : 0.00191322
Averaging fields
ExecutionTime = 39.78 s  ClockTime = 40 s

Iteration 60|500
Time = 0.12

smoothSolver:  Solving for Ux, Initial residual = 0.00019025, Final residual = 4.45099e-07, No Iterations 3
smoothSolver:  Solving for Uy, Initial residual = 0.00132792, Final residual = 2.72455e-06, No Iterations 3
smoothSolver:  Solving for Uz, Initial residual = 0.00303277, Final residual = 4.66899e-06, No Iterations 3
GAMG:  Solving for p, Initial residual = 0.0498377, Final residual = 0.000486854, No Iterations 37
time step continuity errors : sum local = 6.63017e-10, global = -1.10237e-12, cumulative = -3.76282e-09
smoothSolver:  Solving for nuTilda, Initial residual = 0.000769387, Final residual = 2.88849e-06, No Iterations 3

drag : 0.00191099
Averaging fields
ExecutionTime = 40.35 s  ClockTime = 40 s

Iteration 61|500
Time = 0.122

smoothSolver:  Solving for Ux, Initial residual = 0.000182226, Final residual = 4.20815e-07, No Iterations 3
smoothSolver:  Solving for Uy, Initial residual = 0.00125081, Final residual = 2.53309e-06, No Iterations 3
smoothSolver:  Solving for Uz, Initial residual = 0.00290242, Final residual = 4.47403e-06, No Iterations 3
GAMG:  Solving for p, Initial residual = 0.0475754, Final residual = 0.000459601, No Iterations 37
time step continuity errors : sum local = 6.2184e-10, global = 9.3532e-14, cumulative = -3.76273e-09
smoothSolver:  Solving for nuTilda, Initial residual = 0.000772772, Final residual = 2.91508e-06, No Iterations 3

drag : 0.00190881
Averaging fields
ExecutionTime = 40.87 s  ClockTime = 41 s

Iteration 62|500
Time = 0.124

smoothSolver:  Solving for Ux, Initial residual = 0.000173623, Final residual = 3.9792e-07, No Iterations 3
smoothSolver:  Solving for Uy, Initial residual = 0.00117681, Final residual = 2.36625e-06, No Iterations 3
smoothSolver:  Solving for Uz, Initial residual = 0.00277407, Final residual = 4.30576e-06, No Iterations 3
GAMG:  Solving for p, Initial residual = 0.0454805, Final residual = 0.000436377, No Iterations 37
time step continuity errors : sum local = 5.87364e-10, global = 1.68065e-12, cumulative = -3.76105e-09
smoothSolver:  Solving for nuTilda, Initial residual = 0.000774762, Final residual = 2.9378e-06, No Iterations 3

drag : 0.00190667
Averaging fields
ExecutionTime = 41.44 s  ClockTime = 41 s

Iteration 63|500
Time = 0.126

smoothSolver:  Solving for Ux, Initial residual = 0.000166511, Final residual = 3.77442e-07, No Iterations 3
smoothSolver:  Solving for Uy, Initial residual = 0.0011163, Final residual = 2.2209e-06, No Iterations 3
smoothSolver:  Solving for Uz, Initial residual = 0.0026758, Final residual = 4.14974e-06, No Iterations 3
GAMG:  Solving for p, Initial residual = 0.0433499, Final residual = 0.00042144, No Iterations 37
time step continuity errors : sum local = 5.65008e-10, global = 2.53147e-12, cumulative = -3.75851e-09
smoothSolver:  Solving for nuTilda, Initial residual = 0.000775693, Final residual = 2.95266e-06, No Iterations 3

drag : 0.00190457
Averaging fields
ExecutionTime = 41.96 s  ClockTime = 42 s

Iteration 64|500
Time = 0.128

smoothSolver:  Solving for Ux, Initial residual = 0.000160425, Final residual = 3.58498e-07, No Iterations 3
smoothSolver:  Solving for Uy, Initial residual = 0.00106795, Final residual = 2.08885e-06, No Iterations 3
smoothSolver:  Solving for Uz, Initial residual = 0.00259, Final residual = 4.0017e-06, No Iterations 3
GAMG:  Solving for p, Initial residual = 0.0413681, Final residual = 0.000409372, No Iterations 37
time step continuity errors : sum local = 5.47138e-10, global = 3.006e-12, cumulative = -3.75551e-09
smoothSolver:  Solving for nuTilda, Initial residual = 0.000776343, Final residual = 2.96196e-06, No Iterations 3

drag : 0.0019025
Averaging fields
ExecutionTime = 42.51 s  ClockTime = 42 s

Iteration 65|500
Time = 0.13

smoothSolver:  Solving for Ux, Initial residual = 0.000154926, Final residual = 3.41164e-07, No Iterations 3
smoothSolver:  Solving for Uy, Initial residual = 0.00103731, Final residual = 1.9845e-06, No Iterations 3
smoothSolver:  Solving for Uz, Initial residual = 0.0025186, Final residual = 3.8595e-06, No Iterations 3
GAMG:  Solving for p, Initial residual = 0.0393807, Final residual = 0.000391902, No Iterations 37
time step continuity errors : sum local = 5.22572e-10, global = 3.24722e-12, cumulative = -3.75226e-09
smoothSolver:  Solving for nuTilda, Initial residual = 0.000776546, Final residual = 2.96387e-06, No Iterations 3

drag : 0.00190045
Averaging fields
ExecutionTime = 43.06 s  ClockTime = 43 s

Iteration 66|500
Time = 0.132

smoothSolver:  Solving for Ux, Initial residual = 0.000150228, Final residual = 3.25632e-07, No Iterations 3
smoothSolver:  Solving for Uy, Initial residual = 0.00101387, Final residual = 1.90232e-06, No Iterations 3
smoothSolver:  Solving for Uz, Initial residual = 0.00244694, Final residual = 3.71237e-06, No Iterations 3
GAMG:  Solving for p, Initial residual = 0.03754, Final residual = 0.000369877, No Iterations 37
time step continuity errors : sum local = 4.9234e-10, global = 3.47021e-12, cumulative = -3.74879e-09
smoothSolver:  Solving for nuTilda, Initial residual = 0.000776936, Final residual = 2.95527e-06, No Iterations 3

drag : 0.00189843
Averaging fields
ExecutionTime = 43.62 s  ClockTime = 43 s

Iteration 67|500
Time = 0.134

smoothSolver:  Solving for Ux, Initial residual = 0.000145515, Final residual = 3.11204e-07, No Iterations 3
smoothSolver:  Solving for Uy, Initial residual = 0.000989574, Final residual = 1.85775e-06, No Iterations 3
smoothSolver:  Solving for Uz, Initial residual = 0.00236287, Final residual = 3.58687e-06, No Iterations 3
GAMG:  Solving for p, Initial residual = 0.0357725, Final residual = 0.00035044, No Iterations 37
time step continuity errors : sum local = 4.65841e-10, global = 3.80039e-12, cumulative = -3.74499e-09
smoothSolver:  Solving for nuTilda, Initial residual = 0.000777233, Final residual = 2.93617e-06, No Iterations 3

drag : 0.00189643
Averaging fields
ExecutionTime = 44.13 s  ClockTime = 44 s

Iteration 68|500
Time = 0.136

smoothSolver:  Solving for Ux, Initial residual = 0.000140577, Final residual = 2.98252e-07, No Iterations 3
smoothSolver:  Solving for Uy, Initial residual = 0.000960761, Final residual = 1.82252e-06, No Iterations 3
smoothSolver:  Solving for Uz, Initial residual = 0.00227684, Final residual = 3.48563e-06, No Iterations 3
GAMG:  Solving for p, Initial residual = 0.0340002, Final residual = 0.00033743, No Iterations 37
time step continuity errors : sum local = 4.4807e-10, global = -1.09592e-12, cumulative = -3.74609e-09
smoothSolver:  Solving for nuTilda, Initial residual = 0.000777764, Final residual = 2.90994e-06, No Iterations 3

drag : 0.00189447
Averaging fields
ExecutionTime = 44.69 s  ClockTime = 45 s

Iteration 69|500
Time = 0.138

smoothSolver:  Solving for Ux, Initial residual = 0.000135887, Final residual = 2.86738e-07, No Iterations 3
smoothSolver:  Solving for Uy, Initial residual = 0.000924804, Final residual = 1.79445e-06, No Iterations 3
smoothSolver:  Solving for Uz, Initial residual = 0.00218476, Final residual = 3.41653e-06, No Iterations 3
GAMG:  Solving for p, Initial residual = 0.0322567, Final residual = 0.000320224, No Iterations 37
time step continuity errors : sum local = 4.24797e-10, global = -8.68636e-12, cumulative = -3.75477e-09
smoothSolver:  Solving for nuTilda, Initial residual = 0.000778474, Final residual = 2.88121e-06, No Iterations 3

drag : 0.00189253
Averaging fields
ExecutionTime = 45.23 s  ClockTime = 45 s

Iteration 70|500
Time = 0.14

smoothSolver:  Solving for Ux, Initial residual = 0.000131608, Final residual = 2.75735e-07, No Iterations 3
smoothSolver:  Solving for Uy, Initial residual = 0.000884525, Final residual = 1.76437e-06, No Iterations 3
smoothSolver:  Solving for Uz, Initial residual = 0.00209463, Final residual = 3.33974e-06, No Iterations 3
GAMG:  Solving for p, Initial residual = 0.0306594, Final residual = 0.000298285, No Iterations 37
time step continuity errors : sum local = 3.95256e-10, global = -9.06622e-12, cumulative = -3.76384e-09
smoothSolver:  Solving for nuTilda, Initial residual = 0.000779197, Final residual = 2.85327e-06, No Iterations 3

drag : 0.00189063
Averaging fields
ExecutionTime = 45.86 s  ClockTime = 46 s

Iteration 71|500
Time = 0.142

smoothSolver:  Solving for Ux, Initial residual = 0.000127283, Final residual = 2.65579e-07, No Iterations 3
smoothSolver:  Solving for Uy, Initial residual = 0.000843746, Final residual = 1.71952e-06, No Iterations 3
smoothSolver:  Solving for Uz, Initial residual = 0.0020093, Final residual = 3.2599e-06, No Iterations 3
GAMG:  Solving for p, Initial residual = 0.0292687, Final residual = 0.000287782, No Iterations 36
time step continuity errors : sum local = 3.80927e-10, global = 9.13845e-12, cumulative = -3.7547e-09
smoothSolver:  Solving for nuTilda, Initial residual = 0.000779941, Final residual = 2.83258e-06, No Iterations 3

drag : 0.00188875
Averaging fields
ExecutionTime = 46.52 s  ClockTime = 46 s

Iteration 72|500
Time = 0.144

smoothSolver:  Solving for Ux, Initial residual = 0.000123336, Final residual = 2.5639e-07, No Iterations 3
smoothSolver:  Solving for Uy, Initial residual = 0.000800738, Final residual = 1.65941e-06, No Iterations 3
smoothSolver:  Solving for Uz, Initial residual = 0.00191464, Final residual = 3.16082e-06, No Iterations 3
GAMG:  Solving for p, Initial residual = 0.0279464, Final residual = 0.000266791, No Iterations 36
time step continuity errors : sum local = 3.52702e-10, global = 5.13261e-12, cumulative = -3.74957e-09
smoothSolver:  Solving for nuTilda, Initial residual = 0.00078123, Final residual = 2.82173e-06, No Iterations 3

drag : 0.0018869
Averaging fields
ExecutionTime = 47.11 s  ClockTime = 47 s

Iteration 73|500
Time = 0.146

smoothSolver:  Solving for Ux, Initial residual = 0.000119653, Final residual = 2.4793e-07, No Iterations 3
smoothSolver:  Solving for Uy, Initial residual = 0.000759425, Final residual = 1.59029e-06, No Iterations 3
smoothSolver:  Solving for Uz, Initial residual = 0.00182713, Final residual = 3.0581e-06, No Iterations 3
GAMG:  Solving for p, Initial residual = 0.0266234, Final residual = 0.000264958, No Iterations 35
time step continuity errors : sum local = 3.49817e-10, global = -2.36917e-12, cumulative = -3.75194e-09
smoothSolver:  Solving for nuTilda, Initial residual = 0.000783177, Final residual = 2.82079e-06, No Iterations 3

drag : 0.00188505
Averaging fields
ExecutionTime = 47.62 s  ClockTime = 47 s

Iteration 74|500
Time = 0.148

smoothSolver:  Solving for Ux, Initial residual = 0.000115952, Final residual = 2.40095e-07, No Iterations 3
smoothSolver:  Solving for Uy, Initial residual = 0.000721162, Final residual = 1.51483e-06, No Iterations 3
smoothSolver:  Solving for Uz, Initial residual = 0.00175902, Final residual = 2.95708e-06, No Iterations 3
GAMG:  Solving for p, Initial residual = 0.0252291, Final residual = 0.000241097, No Iterations 36
time step continuity errors : sum local = 3.17874e-10, global = 1.79744e-12, cumulative = -3.75014e-09
smoothSolver:  Solving for nuTilda, Initial residual = 0.000785966, Final residual = 2.83018e-06, No Iterations 3

drag : 0.00188322
Averaging fields
ExecutionTime = 48.22 s  ClockTime = 48 s

Iteration 75|500
Time = 0.15

smoothSolver:  Solving for Ux, Initial residual = 0.000112388, Final residual = 2.32955e-07, No Iterations 3
smoothSolver:  Solving for Uy, Initial residual = 0.000682568, Final residual = 1.42728e-06, No Iterations 3
smoothSolver:  Solving for Uz, Initial residual = 0.00170248, Final residual = 2.83882e-06, No Iterations 3
GAMG:  Solving for p, Initial residual = 0.0239765, Final residual = 0.000232433, No Iterations 36
time step continuity errors : sum local = 3.05964e-10, global = 1.19807e-12, cumulative = -3.74894e-09
smoothSolver:  Solving for nuTilda, Initial residual = 0.000789817, Final residual = 2.8469e-06, No Iterations 3

drag : 0.0018814
Averaging fields
ExecutionTime = 48.77 s  ClockTime = 49 s

Iteration 76|500
Time = 0.152

smoothSolver:  Solving for Ux, Initial residual = 0.000108914, Final residual = 2.25924e-07, No Iterations 3
smoothSolver:  Solving for Uy, Initial residual = 0.000649954, Final residual = 1.32953e-06, No Iterations 3
smoothSolver:  Solving for Uz, Initial residual = 0.00165185, Final residual = 2.70813e-06, No Iterations 3
GAMG:  Solving for p, Initial residual = 0.0229118, Final residual = 0.000222655, No Iterations 36
time step continuity errors : sum local = 2.92603e-10, global = 5.0851e-13, cumulative = -3.74843e-09
smoothSolver:  Solving for nuTilda, Initial residual = 0.000795288, Final residual = 2.86941e-06, No Iterations 3

drag : 0.0018796
Averaging fields
ExecutionTime = 49.28 s  ClockTime = 49 s

Iteration 77|500
Time = 0.154

smoothSolver:  Solving for Ux, Initial residual = 0.000105641, Final residual = 2.18721e-07, No Iterations 3
smoothSolver:  Solving for Uy, Initial residual = 0.000618891, Final residual = 1.23563e-06, No Iterations 3
smoothSolver:  Solving for Uz, Initial residual = 0.00159513, Final residual = 2.57423e-06, No Iterations 3
GAMG:  Solving for p, Initial residual = 0.0219085, Final residual = 0.000211676, No Iterations 36
time step continuity errors : sum local = 2.77723e-10, global = -1.71599e-13, cumulative = -3.74861e-09
smoothSolver:  Solving for nuTilda, Initial residual = 0.000802803, Final residual = 2.89631e-06, No Iterations 3

drag : 0.00187783
Averaging fields
ExecutionTime = 49.81 s  ClockTime = 50 s

Iteration 78|500
Time = 0.156

smoothSolver:  Solving for Ux, Initial residual = 0.000102601, Final residual = 2.111e-07, No Iterations 3
smoothSolver:  Solving for Uy, Initial residual = 0.000591227, Final residual = 1.15237e-06, No Iterations 3
smoothSolver:  Solving for Uz, Initial residual = 0.00155001, Final residual = 2.45091e-06, No Iterations 3
GAMG:  Solving for p, Initial residual = 0.0209562, Final residual = 0.000201365, No Iterations 36
time step continuity errors : sum local = 2.63782e-10, global = 1.52142e-13, cumulative = -3.74845e-09
smoothSolver:  Solving for nuTilda, Initial residual = 0.000813068, Final residual = 2.9267e-06, No Iterations 3

drag : 0.00187607
Averaging fields
ExecutionTime = 50.34 s  ClockTime = 50 s

Iteration 79|500
Time = 0.158

smoothSolver:  Solving for Ux, Initial residual = 9.97179e-05, Final residual = 2.02779e-07, No Iterations 3
smoothSolver:  Solving for Uy, Initial residual = 0.000564403, Final residual = 1.07555e-06, No Iterations 3
smoothSolver:  Solving for Uz, Initial residual = 0.00150482, Final residual = 2.32788e-06, No Iterations 3
GAMG:  Solving for p, Initial residual = 0.0199902, Final residual = 0.000191114, No Iterations 36
time step continuity errors : sum local = 2.49956e-10, global = 2.21928e-13, cumulative = -3.74823e-09
smoothSolver:  Solving for nuTilda, Initial residual = 0.000826257, Final residual = 2.95735e-06, No Iterations 3

drag : 0.00187433
Averaging fields
ExecutionTime = 50.85 s  ClockTime = 51 s

Iteration 80|500
Time = 0.16

smoothSolver:  Solving for Ux, Initial residual = 9.6552e-05, Final residual = 1.93943e-07, No Iterations 3
smoothSolver:  Solving for Uy, Initial residual = 0.000538526, Final residual = 1.00337e-06, No Iterations 3
smoothSolver:  Solving for Uz, Initial residual = 0.00145132, Final residual = 2.21919e-06, No Iterations 3
GAMG:  Solving for p, Initial residual = 0.0191113, Final residual = 0.000190666, No Iterations 35
time step continuity errors : sum local = 2.48997e-10, global = -2.09131e-12, cumulative = -3.75032e-09
smoothSolver:  Solving for nuTilda, Initial residual = 0.000842079, Final residual = 2.98602e-06, No Iterations 3

drag : 0.00187261
Averaging fields
ExecutionTime = 51.33 s  ClockTime = 51 s

Iteration 81|500
Time = 0.162

smoothSolver:  Solving for Ux, Initial residual = 9.3957e-05, Final residual = 1.84862e-07, No Iterations 3
smoothSolver:  Solving for Uy, Initial residual = 0.000515381, Final residual = 9.38423e-07, No Iterations 3
smoothSolver:  Solving for Uz, Initial residual = 0.00140445, Final residual = 2.11683e-06, No Iterations 3
GAMG:  Solving for p, Initial residual = 0.0182814, Final residual = 0.000180578, No Iterations 35
time step continuity errors : sum local = 2.35481e-10, global = -2.11286e-12, cumulative = -3.75244e-09
smoothSolver:  Solving for nuTilda, Initial residual = 0.000860077, Final residual = 3.01211e-06, No Iterations 3

drag : 0.00187092
Averaging fields
ExecutionTime = 51.84 s  ClockTime = 52 s

Iteration 82|500
Time = 0.164

smoothSolver:  Solving for Ux, Initial residual = 9.15197e-05, Final residual = 1.75464e-07, No Iterations 3
smoothSolver:  Solving for Uy, Initial residual = 0.000492935, Final residual = 8.8181e-07, No Iterations 3
smoothSolver:  Solving for Uz, Initial residual = 0.00135058, Final residual = 2.00038e-06, No Iterations 3
GAMG:  Solving for p, Initial residual = 0.0175362, Final residual = 0.000170911, No Iterations 35
time step continuity errors : sum local = 2.22574e-10, global = -2.08217e-12, cumulative = -3.75452e-09
smoothSolver:  Solving for nuTilda, Initial residual = 0.000879398, Final residual = 3.03518e-06, No Iterations 3

drag : 0.00186924
Averaging fields
ExecutionTime = 52.34 s  ClockTime = 52 s

Iteration 83|500
Time = 0.166

smoothSolver:  Solving for Ux, Initial residual = 8.89773e-05, Final residual = 1.65786e-07, No Iterations 3
smoothSolver:  Solving for Uy, Initial residual = 0.000470367, Final residual = 8.33718e-07, No Iterations 3
smoothSolver:  Solving for Uz, Initial residual = 0.00130277, Final residual = 1.90093e-06, No Iterations 3
GAMG:  Solving for p, Initial residual = 0.0167922, Final residual = 0.000162593, No Iterations 35
time step continuity errors : sum local = 2.11477e-10, global = -1.8731e-12, cumulative = -3.75639e-09
smoothSolver:  Solving for nuTilda, Initial residual = 0.000899937, Final residual = 3.05477e-06, No Iterations 3

drag : 0.00186759
Averaging fields
ExecutionTime = 52.82 s  ClockTime = 53 s

Iteration 84|500
Time = 0.168

smoothSolver:  Solving for Ux, Initial residual = 8.64853e-05, Final residual = 1.56008e-07, No Iterations 3
smoothSolver:  Solving for Uy, Initial residual = 0.000448813, Final residual = 7.93457e-07, No Iterations 3
smoothSolver:  Solving for Uz, Initial residual = 0.00126696, Final residual = 1.8101e-06, No Iterations 3
GAMG:  Solving for p, Initial residual = 0.0161039, Final residual = 0.000156636, No Iterations 35
time step continuity errors : sum local = 2.03494e-10, global = -1.57535e-12, cumulative = -3.75797e-09
smoothSolver:  Solving for nuTilda, Initial residual = 0.000921592, Final residual = 3.07209e-06, No Iterations 3

drag : 0.00186596
Averaging fields
ExecutionTime = 53.31 s  ClockTime = 53 s

Iteration 85|500
Time = 0.17

smoothSolver:  Solving for Ux, Initial residual = 8.38794e-05, Final residual = 1.46244e-07, No Iterations 3
smoothSolver:  Solving for Uy, Initial residual = 0.000427423, Final residual = 7.54208e-07, No Iterations 3
smoothSolver:  Solving for Uz, Initial residual = 0.0012315, Final residual = 1.7321e-06, No Iterations 3
GAMG:  Solving for p, Initial residual = 0.0154697, Final residual = 0.000150235, No Iterations 35
time step continuity errors : sum local = 1.94958e-10, global = -1.2468e-12, cumulative = -3.75921e-09
smoothSolver:  Solving for nuTilda, Initial residual = 0.000944789, Final residual = 3.08812e-06, No Iterations 3

drag : 0.00186436
Averaging fields
ExecutionTime = 53.85 s  ClockTime = 54 s

Iteration 86|500
Time = 0.172

smoothSolver:  Solving for Ux, Initial residual = 8.12877e-05, Final residual = 1.36554e-07, No Iterations 3
smoothSolver:  Solving for Uy, Initial residual = 0.000407879, Final residual = 7.17342e-07, No Iterations 3
smoothSolver:  Solving for Uz, Initial residual = 0.00119483, Final residual = 1.64983e-06, No Iterations 3
GAMG:  Solving for p, Initial residual = 0.0148467, Final residual = 0.000142103, No Iterations 35
time step continuity errors : sum local = 1.84211e-10, global = -9.61109e-13, cumulative = -3.76017e-09
smoothSolver:  Solving for nuTilda, Initial residual = 0.000969135, Final residual = 3.10386e-06, No Iterations 3

drag : 0.00186281
Averaging fields
ExecutionTime = 54.35 s  ClockTime = 54 s

Iteration 87|500
Time = 0.174

smoothSolver:  Solving for Ux, Initial residual = 7.87493e-05, Final residual = 1.2734e-07, No Iterations 3
smoothSolver:  Solving for Uy, Initial residual = 0.000391124, Final residual = 6.83144e-07, No Iterations 3
smoothSolver:  Solving for Uz, Initial residual = 0.00116438, Final residual = 1.57295e-06, No Iterations 3
GAMG:  Solving for p, Initial residual = 0.0142461, Final residual = 0.000140665, No Iterations 34
time step continuity errors : sum local = 1.82168e-10, global = 6.33452e-13, cumulative = -3.75954e-09
smoothSolver:  Solving for nuTilda, Initial residual = 0.000995105, Final residual = 3.12134e-06, No Iterations 3

drag : 0.00186129
Averaging fields
ExecutionTime = 54.87 s  ClockTime = 55 s

Iteration 88|500
Time = 0.176

smoothSolver:  Solving for Ux, Initial residual = 7.63438e-05, Final residual = 1.18649e-07, No Iterations 3
smoothSolver:  Solving for Uy, Initial residual = 0.000375637, Final residual = 6.51014e-07, No Iterations 3
smoothSolver:  Solving for Uz, Initial residual = 0.00112784, Final residual = 1.49669e-06, No Iterations 3
GAMG:  Solving for p, Initial residual = 0.0136276, Final residual = 0.00013417, No Iterations 34
time step continuity errors : sum local = 1.73596e-10, global = 7.95417e-13, cumulative = -3.75875e-09
smoothSolver:  Solving for nuTilda, Initial residual = 0.00102263, Final residual = 3.14162e-06, No Iterations 3

drag : 0.00185983
Averaging fields
ExecutionTime = 55.4 s  ClockTime = 55 s

Iteration 89|500
Time = 0.178

smoothSolver:  Solving for Ux, Initial residual = 7.4142e-05, Final residual = 1.10559e-07, No Iterations 3
smoothSolver:  Solving for Uy, Initial residual = 0.000361556, Final residual = 6.23006e-07, No Iterations 3
smoothSolver:  Solving for Uz, Initial residual = 0.00109428, Final residual = 1.43017e-06, No Iterations 3
GAMG:  Solving for p, Initial residual = 0.0130454, Final residual = 0.000129529, No Iterations 34
time step continuity errors : sum local = 1.67441e-10, global = 1.47613e-12, cumulative = -3.75727e-09
smoothSolver:  Solving for nuTilda, Initial residual = 0.00105271, Final residual = 3.16709e-06, No Iterations 3

drag : 0.00185842
Averaging fields
ExecutionTime = 55.91 s  ClockTime = 56 s

Iteration 90|500
Time = 0.18

smoothSolver:  Solving for Ux, Initial residual = 7.19379e-05, Final residual = 1.03161e-07, No Iterations 3
smoothSolver:  Solving for Uy, Initial residual = 0.000349323, Final residual = 5.97565e-07, No Iterations 3
smoothSolver:  Solving for Uz, Initial residual = 0.00106661, Final residual = 1.36678e-06, No Iterations 3
GAMG:  Solving for p, Initial residual = 0.0124532, Final residual = 0.000124459, No Iterations 34
time step continuity errors : sum local = 1.60758e-10, global = 2.11999e-12, cumulative = -3.75515e-09
smoothSolver:  Solving for nuTilda, Initial residual = 0.00108555, Final residual = 3.19986e-06, No Iterations 3

drag : 0.00185706
Averaging fields
ExecutionTime = 56.41 s  ClockTime = 56 s

Iteration 91|500
Time = 0.182

smoothSolver:  Solving for Ux, Initial residual = 6.96176e-05, Final residual = 9.64998e-08, No Iterations 3
smoothSolver:  Solving for Uy, Initial residual = 0.000336471, Final residual = 5.73628e-07, No Iterations 3
smoothSolver:  Solving for Uz, Initial residual = 0.00103674, Final residual = 1.31116e-06, No Iterations 3
GAMG:  Solving for p, Initial residual = 0.0118999, Final residual = 0.000114318, No Iterations 35
time step continuity errors : sum local = 1.47542e-10, global = -1.8001e-12, cumulative = -3.75695e-09
smoothSolver:  Solving for nuTilda, Initial residual = 0.00112216, Final residual = 3.24257e-06, No Iterations 3

drag : 0.00185577
Averaging fields
ExecutionTime = 56.95 s  ClockTime = 57 s

Iteration 92|500
Time = 0.184

smoothSolver:  Solving for Ux, Initial residual = 6.73553e-05, Final residual = 9.05009e-08, No Iterations 3
smoothSolver:  Solving for Uy, Initial residual = 0.000325498, Final residual = 5.51495e-07, No Iterations 3
smoothSolver:  Solving for Uz, Initial residual = 0.00100606, Final residual = 1.26241e-06, No Iterations 3
[...]
ExecutionTime = 1103.52 s  ClockTime = 1103 s

Iteration 486|500
Time = 2.972

smoothSolver:  Solving for Uax, Initial residual = 1.45473e-06, Final residual = 4.53991e-12, No Iterations 3
smoothSolver:  Solving for Uay, Initial residual = 1.82648e-05, Final residual = 6.46173e-11, No Iterations 3
smoothSolver:  Solving for Uaz, Initial residual = 3.41934e-05, Final residual = 6.28751e-11, No Iterations 3
GAMG:  Solving for pa, Initial residual = 0.00756205, Final residual = 7.13486e-05, No Iterations 6
time step continuity errors : sum local = 2.46995e-12, global = -2.46725e-16, cumulative = -3.65362e-11
smoothSolver:  Solving for nuaTilda, Initial residual = 9.93159e-07, Final residual = 9.12995e-13, No Iterations 3
ExecutionTime = 1103.84 s  ClockTime = 1104 s

Iteration 487|500
Time = 2.974

smoothSolver:  Solving for Uax, Initial residual = 1.45303e-06, Final residual = 4.54241e-12, No Iterations 3
smoothSolver:  Solving for Uay, Initial residual = 1.82522e-05, Final residual = 6.38466e-11, No Iterations 3
smoothSolver:  Solving for Uaz, Initial residual = 3.40157e-05, Final residual = 6.14532e-11, No Iterations 3
GAMG:  Solving for pa, Initial residual = 0.00755315, Final residual = 7.10817e-05, No Iterations 6
time step continuity errors : sum local = 2.46055e-12, global = -3.12288e-16, cumulative = -3.65365e-11
smoothSolver:  Solving for nuaTilda, Initial residual = 9.91001e-07, Final residual = 9.15436e-13, No Iterations 3
ExecutionTime = 1104.17 s  ClockTime = 1104 s

Iteration 488|500
Time = 2.976

smoothSolver:  Solving for Uax, Initial residual = 1.45079e-06, Final residual = 4.5441e-12, No Iterations 3
smoothSolver:  Solving for Uay, Initial residual = 1.8225e-05, Final residual = 6.29272e-11, No Iterations 3
smoothSolver:  Solving for Uaz, Initial residual = 3.38353e-05, Final residual = 6.02526e-11, No Iterations 3
GAMG:  Solving for pa, Initial residual = 0.00755519, Final residual = 7.52161e-05, No Iterations 5
time step continuity errors : sum local = 2.60364e-12, global = -1.95978e-15, cumulative = -3.65385e-11
smoothSolver:  Solving for nuaTilda, Initial residual = 9.88814e-07, Final residual = 9.17532e-13, No Iterations 3
ExecutionTime = 1104.49 s  ClockTime = 1104 s

Iteration 489|500
Time = 2.978

smoothSolver:  Solving for Uax, Initial residual = 1.44797e-06, Final residual = 4.53299e-12, No Iterations 3
smoothSolver:  Solving for Uay, Initial residual = 1.81919e-05, Final residual = 6.19369e-11, No Iterations 3
smoothSolver:  Solving for Uaz, Initial residual = 3.36696e-05, Final residual = 5.936e-11, No Iterations 3
GAMG:  Solving for pa, Initial residual = 0.00755906, Final residual = 7.51428e-05, No Iterations 5
time step continuity errors : sum local = 2.60113e-12, global = -2.11524e-15, cumulative = -3.65406e-11
smoothSolver:  Solving for nuaTilda, Initial residual = 9.86588e-07, Final residual = 9.18853e-13, No Iterations 3
ExecutionTime = 1104.81 s  ClockTime = 1105 s

Iteration 490|500
Time = 2.98

smoothSolver:  Solving for Uax, Initial residual = 1.44383e-06, Final residual = 4.50831e-12, No Iterations 3
smoothSolver:  Solving for Uay, Initial residual = 1.81593e-05, Final residual = 6.05556e-11, No Iterations 3
smoothSolver:  Solving for Uaz, Initial residual = 3.3558e-05, Final residual = 5.84146e-11, No Iterations 3
GAMG:  Solving for pa, Initial residual = 0.00756688, Final residual = 7.51012e-05, No Iterations 5
time step continuity errors : sum local = 2.59986e-12, global = -2.17212e-15, cumulative = -3.65428e-11
smoothSolver:  Solving for nuaTilda, Initial residual = 9.84317e-07, Final residual = 9.21075e-13, No Iterations 3
ExecutionTime = 1105.13 s  ClockTime = 1105 s

Iteration 491|500
Time = 2.982

smoothSolver:  Solving for Uax, Initial residual = 1.43943e-06, Final residual = 4.46485e-12, No Iterations 3
smoothSolver:  Solving for Uay, Initial residual = 1.81117e-05, Final residual = 5.89494e-11, No Iterations 3
smoothSolver:  Solving for Uaz, Initial residual = 3.3487e-05, Final residual = 5.73699e-11, No Iterations 3
GAMG:  Solving for pa, Initial residual = 0.00757113, Final residual = 7.51635e-05, No Iterations 5
time step continuity errors : sum local = 2.6023e-12, global = -2.25433e-15, cumulative = -3.6545e-11
smoothSolver:  Solving for nuaTilda, Initial residual = 9.81887e-07, Final residual = 9.21334e-13, No Iterations 3
ExecutionTime = 1105.45 s  ClockTime = 1105 s

Iteration 492|500
Time = 2.984

smoothSolver:  Solving for Uax, Initial residual = 1.4363e-06, Final residual = 4.41136e-12, No Iterations 3
smoothSolver:  Solving for Uay, Initial residual = 1.804e-05, Final residual = 5.72409e-11, No Iterations 3
smoothSolver:  Solving for Uaz, Initial residual = 3.34389e-05, Final residual = 5.63659e-11, No Iterations 3
GAMG:  Solving for pa, Initial residual = 0.0075695, Final residual = 7.53244e-05, No Iterations 5
time step continuity errors : sum local = 2.60828e-12, global = -1.84695e-15, cumulative = -3.65469e-11
smoothSolver:  Solving for nuaTilda, Initial residual = 9.79336e-07, Final residual = 9.21186e-13, No Iterations 3
ExecutionTime = 1105.79 s  ClockTime = 1106 s

Iteration 493|500
Time = 2.986

smoothSolver:  Solving for Uax, Initial residual = 1.43266e-06, Final residual = 4.3394e-12, No Iterations 3
smoothSolver:  Solving for Uay, Initial residual = 1.79343e-05, Final residual = 5.51871e-11, No Iterations 3
smoothSolver:  Solving for Uaz, Initial residual = 3.33802e-05, Final residual = 5.535e-11, No Iterations 3
GAMG:  Solving for pa, Initial residual = 0.00757085, Final residual = 7.55797e-05, No Iterations 5
time step continuity errors : sum local = 2.61763e-12, global = -1.78692e-15, cumulative = -3.65486e-11
smoothSolver:  Solving for nuaTilda, Initial residual = 9.76784e-07, Final residual = 9.2256e-13, No Iterations 3
ExecutionTime = 1106.12 s  ClockTime = 1106 s

Iteration 494|500
Time = 2.988

smoothSolver:  Solving for Uax, Initial residual = 1.42919e-06, Final residual = 4.2466e-12, No Iterations 3
smoothSolver:  Solving for Uay, Initial residual = 1.78205e-05, Final residual = 5.36026e-11, No Iterations 3
smoothSolver:  Solving for Uaz, Initial residual = 3.3319e-05, Final residual = 5.42483e-11, No Iterations 3
GAMG:  Solving for pa, Initial residual = 0.0075732, Final residual = 7.16843e-05, No Iterations 6
time step continuity errors : sum local = 2.4833e-12, global = -1.01294e-15, cumulative = -3.65497e-11
smoothSolver:  Solving for nuaTilda, Initial residual = 9.7427e-07, Final residual = 9.23929e-13, No Iterations 3
ExecutionTime = 1106.47 s  ClockTime = 1106 s

Iteration 495|500
Time = 2.99

smoothSolver:  Solving for Uax, Initial residual = 1.42553e-06, Final residual = 4.12877e-12, No Iterations 3
smoothSolver:  Solving for Uay, Initial residual = 1.77174e-05, Final residual = 5.35413e-11, No Iterations 3
smoothSolver:  Solving for Uaz, Initial residual = 3.32816e-05, Final residual = 5.35101e-11, No Iterations 3
GAMG:  Solving for pa, Initial residual = 0.0075719, Final residual = 7.56948e-05, No Iterations 5
time step continuity errors : sum local = 2.62297e-12, global = -1.55948e-15, cumulative = -3.65512e-11
smoothSolver:  Solving for nuaTilda, Initial residual = 9.71824e-07, Final residual = 9.24941e-13, No Iterations 3
ExecutionTime = 1106.82 s  ClockTime = 1107 s

Iteration 496|500
Time = 2.992

smoothSolver:  Solving for Uax, Initial residual = 1.42164e-06, Final residual = 3.98772e-12, No Iterations 3
smoothSolver:  Solving for Uay, Initial residual = 1.76361e-05, Final residual = 5.33427e-11, No Iterations 3
smoothSolver:  Solving for Uaz, Initial residual = 3.32519e-05, Final residual = 5.31038e-11, No Iterations 3
GAMG:  Solving for pa, Initial residual = 0.00756475, Final residual = 7.192e-05, No Iterations 6
time step continuity errors : sum local = 2.49286e-12, global = -8.76451e-16, cumulative = -3.65521e-11
smoothSolver:  Solving for nuaTilda, Initial residual = 9.69124e-07, Final residual = 9.25311e-13, No Iterations 3
ExecutionTime = 1107.15 s  ClockTime = 1107 s

Iteration 497|500
Time = 2.994

smoothSolver:  Solving for Uax, Initial residual = 1.41796e-06, Final residual = 3.8367e-12, No Iterations 3
smoothSolver:  Solving for Uay, Initial residual = 1.75583e-05, Final residual = 5.28483e-11, No Iterations 3
smoothSolver:  Solving for Uaz, Initial residual = 3.32071e-05, Final residual = 5.31561e-11, No Iterations 3
GAMG:  Solving for pa, Initial residual = 0.00755885, Final residual = 7.51284e-05, No Iterations 5
time step continuity errors : sum local = 2.6049e-12, global = -1.48957e-15, cumulative = -3.65536e-11
smoothSolver:  Solving for nuaTilda, Initial residual = 9.66384e-07, Final residual = 9.24596e-13, No Iterations 3
ExecutionTime = 1107.47 s  ClockTime = 1107 s

Iteration 498|500
Time = 2.996

smoothSolver:  Solving for Uax, Initial residual = 1.415e-06, Final residual = 3.67511e-12, No Iterations 3
smoothSolver:  Solving for Uay, Initial residual = 1.7494e-05, Final residual = 5.23811e-11, No Iterations 3
smoothSolver:  Solving for Uaz, Initial residual = 3.31687e-05, Final residual = 5.30449e-11, No Iterations 3
GAMG:  Solving for pa, Initial residual = 0.00755495, Final residual = 7.47709e-05, No Iterations 5
time step continuity errors : sum local = 2.5933e-12, global = -1.44427e-15, cumulative = -3.6555e-11
smoothSolver:  Solving for nuaTilda, Initial residual = 9.63605e-07, Final residual = 9.22845e-13, No Iterations 3
ExecutionTime = 1107.79 s  ClockTime = 1108 s

Iteration 499|500
Time = 2.998

smoothSolver:  Solving for Uax, Initial residual = 1.41262e-06, Final residual = 3.51014e-12, No Iterations 3
smoothSolver:  Solving for Uay, Initial residual = 1.74583e-05, Final residual = 5.14233e-11, No Iterations 3
smoothSolver:  Solving for Uaz, Initial residual = 3.31302e-05, Final residual = 5.2689e-11, No Iterations 3
GAMG:  Solving for pa, Initial residual = 0.00754824, Final residual = 7.44216e-05, No Iterations 5
time step continuity errors : sum local = 2.58197e-12, global = -1.35876e-15, cumulative = -3.65564e-11
smoothSolver:  Solving for nuaTilda, Initial residual = 9.60927e-07, Final residual = 9.20363e-13, No Iterations 3
ExecutionTime = 1108.11 s  ClockTime = 1108 s

Iteration 500|500
Time = 3

smoothSolver:  Solving for Uax, Initial residual = 1.41081e-06, Final residual = 3.41865e-12, No Iterations 3
smoothSolver:  Solving for Uay, Initial residual = 1.74717e-05, Final residual = 5.03979e-11, No Iterations 3
smoothSolver:  Solving for Uaz, Initial residual = 3.3086e-05, Final residual = 5.25166e-11, No Iterations 3
GAMG:  Solving for pa, Initial residual = 0.00754079, Final residual = 7.41354e-05, No Iterations 5
time step continuity errors : sum local = 2.57282e-12, global = -1.3436e-15, cumulative = -3.65577e-11
smoothSolver:  Solving for nuaTilda, Initial residual = 9.58365e-07, Final residual = 9.16861e-13, No Iterations 3
ExecutionTime = 1108.42 s  ClockTime = 1108 s


adjS1 solution reached max. number of iterations 500

Adjoint Eikonal Iteration : 0
smoothSolver:  Solving for da, Initial residual = 1.23729e-06, Final residual = 1.04215e-10, No Iterations 3
Max da 0.130781
ExecutionTime = 1108.75 s  ClockTime = 1109 s

Adjoint Eikonal Iteration : 1
smoothSolver:  Solving for da, Initial residual = 8.25618e-07, Final residual = 6.87848e-11, No Iterations 3
Max da 0.130613
ExecutionTime = 1108.81 s  ClockTime = 1109 s


***Reached adjoint eikonal convergence limit, iteration 1***

Calculating distance sensitivities 

* * * * * * * * * * * * * * * * *
Optimisation cycle 4
* * * * * * * * * * * * * * * * *

Adjoint solver adjS1
drag : 0.00179606
Weighted objective : 0.00179606

Adjoint solver adjS1
drag : 0.00179606
Weighted objective : 0.00179606

Writing control point positions to file
Max mesh movement magnitude 0.0653561
    Point usage OK.
    Upper triangular ordering OK.
    Topological cell zip-up check OK.
    Face vertices OK.
    Face-face connectivity OK.
    Mesh topology OK.
    Boundary openness (-8.94446e-17 6.51113e-17 -1.67519e-16) OK.
 ***High aspect ratio cells found, Max aspect ratio: 6.8166e+96, number of cells 7
    Minimum face area = 2.21435e-06. Maximum face area = 1.00826.  Face area magnitudes OK.
 ***Zero or negative cell volume detected.  Minimum negative volume: -2.86634e-06, Number of negative volume cells: 7
    Mesh non-orthogonality Max: 175.086 average: 6.67767
   *Number of severely non-orthogonal (> 70 degrees) faces: 124.
 ***Number of non-orthogonality errors: 19.
 ***Error in face pyramids: 53 faces are incorrectly oriented.
 ***Max skewness = 329.897, 50 highly skew faces detected which may impair the quality of the results
    Failed 5 mesh geometry checks.
    Failed 1 mesh checks.
smoothSolver:  Solving for yWall, Initial residual = 9.86063e-06, Final residual = 1.99042e-08, No Iterations 3
Mesh movement took 0.43 seconds
  Writing new mesh points for mesh region region0
    Point usage OK.
    Upper triangular ordering OK.
    Topological cell zip-up check OK.
    Face vertices OK.
    Face-face connectivity OK.
    Mesh topology OK.
    Boundary openness (-8.94446e-17 6.51113e-17 -1.67519e-16) OK.
 ***High aspect ratio cells found, Max aspect ratio: 6.8166e+96, number of cells 7
    Minimum face area = 2.21435e-06. Maximum face area = 1.00826.  Face area magnitudes OK.
 ***Zero or negative cell volume detected.  Minimum negative volume: -2.86634e-06, Number of negative volume cells: 7
    Mesh non-orthogonality Max: 175.086 average: 6.67767
   *Number of severely non-orthogonal (> 70 degrees) faces: 124.
 ***Number of non-orthogonality errors: 19.
 ***Error in face pyramids: 53 faces are incorrectly oriented.
 ***Max skewness = 329.897, 50 highly skew faces detected which may impair the quality of the results
    Failed 5 mesh geometry checks.
    Failed 1 mesh checks.
Resetting mean fields to zero
Resetting mean turbulent fields to zero
Solving equations for solver op1

Iteration 1|500
Time = 3.002

smoothSolver:  Solving for Ux, Initial residual = 4.11654e-07, Final residual = 4.18757e-10, No Iterations 3
smoothSolver:  Solving for Uy, Initial residual = 9.11532e-05, Final residual = 1.33666e-07, No Iterations 3
smoothSolver:  Solving for Uz, Initial residual = 3.96576e-05, Final residual = 3.39071e-08, No Iterations 3
[7] [stack trace]
[7] =============
[7] #1  Foam::sigFpe::sigHandler(int) in ~/OpenFOAMv2312/platforms/linux64GccDPInt32Opt/lib/libOpenFOAM.so
[7] #2  ? in /lib/x86_64-linux-gnu/libc.so.6
[7] #3  Foam::GAMGSolver::scale(Foam::Field<double>&, Foam::Field<double>&, Foam::lduMatrix const&, Foam::FieldField<Foam::Field, double> const&, Foam::UPtrList<Foam::lduInterfaceField const> const&, Foam::Field<double> const&, unsigned char) const in ~/OpenFOAMv2312/platforms/linux64GccDPInt32Opt/lib/libOpenFOAM.so
[7] #4  Foam::GAMGSolver::Vcycle(Foam::PtrList<Foam::lduMatrix::smoother> const&, Foam::Field<double>&, Foam::Field<double> const&, Foam::Field<double>&, Foam::Field<double>&, Foam::Field<double>&, Foam::Field<double>&, Foam::Field<double>&, Foam::PtrList<Foam::Field<double> >&, Foam::PtrList<Foam::Field<double> >&, unsigned char) const in ~/OpenFOAMv2312/platforms/linux64GccDPInt32Opt/lib/libOpenFOAM.so
[7] #5  Foam::GAMGSolver::solve(Foam::Field<double>&, Foam::Field<double> const&, unsigned char) const in ~/OpenFOAMv2312/platforms/linux64GccDPInt32Opt/lib/libOpenFOAM.so
[7] #6  Foam::fvMatrix<double>::solveSegregated(Foam::dictionary const&) in ~/OpenFOAMv2312/platforms/linux64GccDPInt32Opt/lib/libfiniteVolume.so
[7] #7  Foam::fvMatrix<double>::solveSegregatedOrCoupled(Foam::dictionary const&) in ~/OpenFOAMv2312/platforms/linux64GccDPInt32Opt/lib/libfiniteVolume.so
[7] #8  Foam::fvMesh::solve(Foam::fvMatrix<double>&, Foam::dictionary const&) const in ~/OpenFOAMv2312/platforms/linux64GccDPInt32Opt/lib/libfiniteVolume.so
[7] #9  Foam::simple::mainIter() in ~/OpenFOAMv2312/platforms/linux64GccDPInt32Opt/lib/libadjointOptimisation.so
[7] #10  Foam::simple::solve() in ~/OpenFOAMv2312/platforms/linux64GccDPInt32Opt/lib/libadjointOptimisation.so
[7] #11  Foam::optimisationManager::solvePrimalEquations() in ~/OpenFOAMv2312/platforms/linux64GccDPInt32Opt/lib/libadjointOptimisation.so
[7] #12  Foam::optimisationManager::fixedStepUpdate() in ~/OpenFOAMv2312/platforms/linux64GccDPInt32Opt/lib/libadjointOptimisation.so
[7] #13  ? in ~/OpenFOAMv2312/platforms/linux64GccDPInt32Opt/bin/adjointOptimisationFoam
[7] #14  ? in /lib/x86_64-linux-gnu/libc.so.6
[7] #15  __libc_start_main in /lib/x86_64-linux-gnu/libc.so.6
[7] #16  ? in ~/OpenFOAMv2312/platforms/linux64GccDPInt32Opt/bin/adjointOptimisationFoam
[7] =============
[DESKTOP:28870] *** Process received signal ***
[DESKTOP:28870] Signal: Floating point exception (8)
[DESKTOP:28870] Signal code:  (-6)
[DESKTOP:28870] Failing at address: 0x3e8000070c6
[DESKTOP:28870] [ 0] /lib/x86_64-linux-gnu/libc.so.6(+0x42520)[0x7fbcc91bc520]
[DESKTOP:28870] [ 1] /lib/x86_64-linux-gnu/libc.so.6(pthread_kill+0x12c)[0x7fbcc92109fc]
[DESKTOP:28870] [ 2] /lib/x86_64-linux-gnu/libc.so.6(raise+0x16)[0x7fbcc91bc476]
[DESKTOP:28870] [ 3] /lib/x86_64-linux-gnu/libc.so.6(+0x42520)[0x7fbcc91bc520]
[DESKTOP:28870] [ 4] /home/user/OpenFOAMv2312/platforms/linux64GccDPInt32Opt/lib/libOpenFOAM.so(_ZNK4Foam10GAMGSolver5scaleERNS_5FieldIdEES3_RKNS_9lduMatrixERKNS_10FieldFieldIS1_dEERKNS_8UPtrListIKNS_17lduInterfaceFieldEEERKS2_h+0xbb)[0x7fbcc9e92d0b]
[DESKTOP:28870] [ 5] /home/user/OpenFOAMv2312/platforms/linux64GccDPInt32Opt/lib/libOpenFOAM.so(_ZNK4Foam10GAMGSolver6VcycleERKNS_7PtrListINS_9lduMatrix8smootherEEERNS_5FieldIdEERKS8_S9_S9_S9_S9_S9_RNS1_IS8_EESD_h+0xdd8)[0x7fbcc9e94d28]
[DESKTOP:28870] [ 6] /home/user/OpenFOAMv2312/platforms/linux64GccDPInt32Opt/lib/libOpenFOAM.so(_ZNK4Foam10GAMGSolver5solveERNS_5FieldIdEERKS2_h+0x66f)[0x7fbcc9e969ef]
[DESKTOP:28870] [ 7] /home/user/OpenFOAMv2312/platforms/linux64GccDPInt32Opt/lib/libfiniteVolume.so(_ZN4Foam8fvMatrixIdE15solveSegregatedERKNS_10dictionaryE+0x617)[0x7fbccddf5477]
[DESKTOP:28870] [ 8] /home/user/OpenFOAMv2312/platforms/linux64GccDPInt32Opt/lib/libfiniteVolume.so(_ZN4Foam8fvMatrixIdE24solveSegregatedOrCoupledERKNS_10dictionaryE+0x407)[0x7fbccd17ad17]
[DESKTOP:28870] [ 9] /home/user/OpenFOAMv2312/platforms/linux64GccDPInt32Opt/lib/libfiniteVolume.so(_ZNK4Foam6fvMesh5solveERNS_8fvMatrixIdEERKNS_10dictionaryE+0x28)[0x7fbccd1091d8]
[DESKTOP:28870] [10] /home/user/OpenFOAMv2312/platforms/linux64GccDPInt32Opt/lib/libadjointOptimisation.so(_ZN4Foam6simple8mainIterEv+0xc1a)[0x7fbcca716f5a]
[DESKTOP:28870] [11] /home/user/OpenFOAMv2312/platforms/linux64GccDPInt32Opt/lib/libadjointOptimisation.so(_ZN4Foam6simple5solveEv+0xf2)[0x7fbcca710912]
[DESKTOP:28870] [12] /home/user/OpenFOAMv2312/platforms/linux64GccDPInt32Opt/lib/libadjointOptimisation.so(_ZN4Foam19optimisationManager20solvePrimalEquationsEv+0x3e)[0x7fbccac4034e]
[DESKTOP:28870] [13] /home/user/OpenFOAMv2312/platforms/linux64GccDPInt32Opt/lib/libadjointOptimisation.so(_ZN4Foam19optimisationManager15fixedStepUpdateEv+0x4b)[0x7fbccac4198b]
[DESKTOP:28870] [14] adjointOptimisationFoam(+0x4b4e)[0x55c93e051b4e]
[DESKTOP:28870] [15] /lib/x86_64-linux-gnu/libc.so.6(+0x29d90)[0x7fbcc91a3d90]
[DESKTOP:28870] [16] /lib/x86_64-linux-gnu/libc.so.6(__libc_start_main+0x80)[0x7fbcc91a3e40]
[DESKTOP:28870] [17] adjointOptimisationFoam(+0x55e5)[0x55c93e0525e5]
[DESKTOP:28870] *** End of error message ***
--------------------------------------------------------------------------
Primary job  terminated normally, but 1 process returned
a non-zero exit code. Per user-direction, the job has been aborted.
--------------------------------------------------------------------------
--------------------------------------------------------------------------
mpirun noticed that process rank 7 with PID 0 on node DESKTOP exited on signal 8 (Floating point exception).
--------------------------------------------------------------------------
