/*---------------------------------------------------------------------------*\
| =========                 |                                                 |
| \\      /  F ield         | OpenFOAM: The Open Source CFD Toolbox           |
|  \\    /   O peration     | Version:  2312                                  |
|   \\  /    A nd           | Website:  www.openfoam.com                      |
|    \\/     M anipulation  |                                                 |
\*---------------------------------------------------------------------------*/
Build  : _1d8f0d55f7-20231221 OPENFOAM=2312 version=v2312
Arch   : "LSB;label=32;scalar=64"
Exec   : adjointOptimisationFoam -parallel
Date   : Mar 11 2024
Time   : 23:37:30
Host   : DESKTOP
PID    : 2006
I/O    : uncollated
Case   : /home/user/OF2312/DTCHullDoubleBody_AdjointOpti
nProcs : 8
Hosts  :
(
    (DESKTOP 8)
)
Pstream initialized with:
    floatTransfer      : false
    nProcsSimpleSum    : 0
    nonBlockingExchange: 0 (tuning: 0)
    exchange algorithm : 0
    commsType          : nonBlocking
    polling iterations : 0
trapFpe: Floating point exception trapping enabled (FOAM_SIGFPE).
fileModificationChecking : Monitoring run-time modified files using timeStampMaster (fileModificationSkew 5, maxFileModificationPolls 20)
allowSystemOperations : Allowing user-supplied system call operations

// * * * * * * * * * * * * * * * * * * * * * * * * * * * * * * * * * * * * * //
Create time

Create mesh for time = 0

optimisationManager type : steadyOptimisation
designVariables type : shape
shapeDesignVariables type : volumetricBSplines
displacementMethod type : volumetricBSplinesMotionSolver
Selecting motion solver: volumetricBSplinesMotionSolver
NURBS3DVolume type : cartesian
Using knots 
11
(
0
0
0
0
0.25
0.5
0.75
1
1
1
1
)

Using knots 
11
(
0
0
0
0
0.25
0.5
0.75
1
1
1
1
)

Using knots 
11
(
0
0
0
0
0.25
0.5
0.75
1
1
1
1
)

controlPointsDefinition type : axisAligned
Writing control point positions to file
Control Points bounds 
	X1 : (6 6.5)
	X2 : (-0.15 0.15)
	X3 : (-0.1 0.3)

Initially found 3338 points inside control boxes
Mapping of mesh points to parametric space for box box ...
Found 0 to discard from morphing boxes
Keeping 3338 parameterized points in boxes
	Mapping completed in 0.61 seconds
	Max iterations per point needed to compute parametric coordinates : 4
	Max difference between original mesh points and parameterized ones 1.17863e-10
morphingBoxConstraint type : none
Selecting incompressible transport model Newtonian
Selecting turbulence model type RAS
Selecting RAS turbulence model kOmegaSST
Selecting patchDistMethod meshWave
RAS
{
    RASModel        kOmegaSST;
    turbulence      on;
    printCoeffs     on;
    alphaK1         0.85;
    alphaK2         1;
    alphaOmega1     0.5;
    alphaOmega2     0.856;
    gamma1          0.555556;
    gamma2          0.44;
    beta1           0.075;
    beta2           0.0828;
    betaStar        0.09;
    a1              0.31;
    b1              1;
    c1              10;
    F3              false;
    decayControl    false;
    kInf            0;
    omegaInf        0;
}

Creating references for RASModel variables : kOmegaSST
Allocating mean values of turbulence variables
Allocating Mean Primal Fields
No MRF models present

Found 1 adjoint solvers that allocate fields
Constructing objective functions 

Creating objective function : drag of type force
Selecting adjointRAS turbulence model adjointkOmegaSST
Updating primal-based fields of the adjoint turbulence model ...
ATCModel type standard
Zeroing ATC on 15627 cells

adjointSensitivity type : shapeFI
Found 0 adjoint solvers acting as single-sided constraints
Found 0 adjoint solvers acting as double-sided constraints
Found 1 active adjoint solvers
updateMethod type : BFGS
lineSearch type : none
No line search method specified. Proceeding with constant step
No convergence criterion defined for optimsation
It will run for 600 optimisation cycles 

Feasibility threshold is 1e-06

Starting time loop


* * * * * * * * * * * * * * * * *
Optimisation cycle 1
* * * * * * * * * * * * * * * * *

Resetting mean fields to zero
Resetting mean turbulent fields to zero
Solving equations for solver op1

Iteration 1|500
Time = 0.002

smoothSolver:  Solving for Ux, Initial residual = 0.070192, Final residual = 0.000268254, No Iterations 3
smoothSolver:  Solving for Uy, Initial residual = 0.548503, Final residual = 0.00104771, No Iterations 3
smoothSolver:  Solving for Uz, Initial residual = 0.564045, Final residual = 0.001734, No Iterations 3
GAMG:  Solving for p, Initial residual = 1, Final residual = 0.00975151, No Iterations 60
time step continuity errors : sum local = 8.19355e-08, global = 1.42528e-09, cumulative = 1.42528e-09
smoothSolver:  Solving for omega, Initial residual = 0.188598, Final residual = 0.000772629, No Iterations 3
smoothSolver:  Solving for k, Initial residual = 1, Final residual = 0.00435831, No Iterations 3

drag : 0.000939496
ExecutionTime = 1.65 s  ClockTime = 2 s

Iteration 2|500
Time = 0.004

smoothSolver:  Solving for Ux, Initial residual = 0.0456455, Final residual = 4.29402e-06, No Iterations 6
smoothSolver:  Solving for Uy, Initial residual = 0.423305, Final residual = 0.00126699, No Iterations 3
smoothSolver:  Solving for Uz, Initial residual = 0.484483, Final residual = 0.00170495, No Iterations 3
GAMG:  Solving for p, Initial residual = 0.271793, Final residual = 0.002647, No Iterations 60
time step continuity errors : sum local = 4.33391e-08, global = 1.59271e-09, cumulative = 3.01799e-09
smoothSolver:  Solving for omega, Initial residual = 0.0948314, Final residual = 0.000445597, No Iterations 3
smoothSolver:  Solving for k, Initial residual = 0.292866, Final residual = 0.00144262, No Iterations 3

drag : 0.00142777
ExecutionTime = 2.29 s  ClockTime = 3 s

Iteration 3|500
Time = 0.006

smoothSolver:  Solving for Ux, Initial residual = 0.0427198, Final residual = 2.78547e-06, No Iterations 6
smoothSolver:  Solving for Uy, Initial residual = 0.339737, Final residual = 0.00288997, No Iterations 3
smoothSolver:  Solving for Uz, Initial residual = 0.325633, Final residual = 0.00200367, No Iterations 3
GAMG:  Solving for p, Initial residual = 0.11067, Final residual = 0.00108426, No Iterations 35
time step continuity errors : sum local = 2.13395e-08, global = 9.52821e-10, cumulative = 3.97081e-09
smoothSolver:  Solving for omega, Initial residual = 0.0540212, Final residual = 0.000278022, No Iterations 3
smoothSolver:  Solving for k, Initial residual = 0.149247, Final residual = 0.000795879, No Iterations 3

drag : 0.00181591
ExecutionTime = 2.77 s  ClockTime = 3 s

Iteration 4|500
Time = 0.008

smoothSolver:  Solving for Ux, Initial residual = 0.0353657, Final residual = 0.00028343, No Iterations 3
smoothSolver:  Solving for Uy, Initial residual = 0.240504, Final residual = 1.59647e-05, No Iterations 6
smoothSolver:  Solving for Uz, Initial residual = 0.209093, Final residual = 4.87697e-05, No Iterations 6
GAMG:  Solving for p, Initial residual = 0.175314, Final residual = 0.00173364, No Iterations 65
time step continuity errors : sum local = 3.09094e-08, global = 1.11381e-09, cumulative = 5.08462e-09
smoothSolver:  Solving for omega, Initial residual = 0.0326558, Final residual = 0.000172622, No Iterations 3
smoothSolver:  Solving for k, Initial residual = 0.087506, Final residual = 0.000490244, No Iterations 3

drag : 0.00197488
ExecutionTime = 3.44 s  ClockTime = 4 s

Iteration 5|500
Time = 0.01

smoothSolver:  Solving for Ux, Initial residual = 0.0232511, Final residual = 0.000144076, No Iterations 3
smoothSolver:  Solving for Uy, Initial residual = 0.147566, Final residual = 1.04159e-05, No Iterations 6
smoothSolver:  Solving for Uz, Initial residual = 0.138215, Final residual = 3.89718e-05, No Iterations 6
GAMG:  Solving for p, Initial residual = 0.289973, Final residual = 0.00285606, No Iterations 68
time step continuity errors : sum local = 3.83199e-08, global = -1.38002e-09, cumulative = 3.7046e-09
smoothSolver:  Solving for omega, Initial residual = 0.0204034, Final residual = 0.000103119, No Iterations 3
smoothSolver:  Solving for k, Initial residual = 0.0541402, Final residual = 0.000303559, No Iterations 3

drag : 0.0019067
ExecutionTime = 4.14 s  ClockTime = 5 s

Iteration 6|500
Time = 0.012

smoothSolver:  Solving for Ux, Initial residual = 0.0111373, Final residual = 4.94011e-05, No Iterations 3
smoothSolver:  Solving for Uy, Initial residual = 0.0820665, Final residual = 7.60202e-06, No Iterations 6
smoothSolver:  Solving for Uz, Initial residual = 0.0888115, Final residual = 3.03011e-05, No Iterations 6
GAMG:  Solving for p, Initial residual = 0.425996, Final residual = 0.00422442, No Iterations 63
time step continuity errors : sum local = 4.13901e-08, global = 1.53905e-09, cumulative = 5.24365e-09
smoothSolver:  Solving for omega, Initial residual = 0.0131655, Final residual = 5.87255e-05, No Iterations 3
smoothSolver:  Solving for k, Initial residual = 0.0344214, Final residual = 0.000181758, No Iterations 3

drag : 0.00169007
ExecutionTime = 4.83 s  ClockTime = 5 s

Iteration 7|500
Time = 0.014

smoothSolver:  Solving for Ux, Initial residual = 0.00912952, Final residual = 5.44866e-05, No Iterations 3
smoothSolver:  Solving for Uy, Initial residual = 0.0631996, Final residual = 0.000446775, No Iterations 3
smoothSolver:  Solving for Uz, Initial residual = 0.0779475, Final residual = 0.000625484, No Iterations 3
GAMG:  Solving for p, Initial residual = 0.309238, Final residual = 0.00305562, No Iterations 51
time step continuity errors : sum local = 4.11695e-08, global = 1.65411e-09, cumulative = 6.89776e-09
smoothSolver:  Solving for omega, Initial residual = 0.00877051, Final residual = 3.15216e-05, No Iterations 3
smoothSolver:  Solving for k, Initial residual = 0.0222911, Final residual = 0.000103173, No Iterations 3

drag : 0.0014426
ExecutionTime = 5.42 s  ClockTime = 6 s

Iteration 8|500
Time = 0.016

smoothSolver:  Solving for Ux, Initial residual = 0.0140845, Final residual = 7.47638e-05, No Iterations 3
smoothSolver:  Solving for Uy, Initial residual = 0.0911463, Final residual = 5.31338e-06, No Iterations 6
smoothSolver:  Solving for Uz, Initial residual = 0.0979266, Final residual = 0.000931202, No Iterations 3
GAMG:  Solving for p, Initial residual = 0.252065, Final residual = 0.00248476, No Iterations 35
time step continuity errors : sum local = 3.83214e-08, global = -1.58006e-09, cumulative = 5.3177e-09
smoothSolver:  Solving for omega, Initial residual = 0.005999, Final residual = 1.59868e-05, No Iterations 3
smoothSolver:  Solving for k, Initial residual = 0.0146969, Final residual = 5.52018e-05, No Iterations 3

drag : 0.00126611
ExecutionTime = 5.9 s  ClockTime = 6 s

Iteration 9|500
Time = 0.018

smoothSolver:  Solving for Ux, Initial residual = 0.0147386, Final residual = 7.2244e-05, No Iterations 3
smoothSolver:  Solving for Uy, Initial residual = 0.107614, Final residual = 5.10395e-06, No Iterations 6
smoothSolver:  Solving for Uz, Initial residual = 0.105735, Final residual = 0.00105123, No Iterations 3
GAMG:  Solving for p, Initial residual = 0.215959, Final residual = 0.00215133, No Iterations 39
time step continuity errors : sum local = 3.29041e-08, global = -1.58323e-09, cumulative = 3.73447e-09
smoothSolver:  Solving for omega, Initial residual = 0.00420341, Final residual = 7.81796e-06, No Iterations 3
smoothSolver:  Solving for k, Initial residual = 0.0098976, Final residual = 2.81716e-05, No Iterations 3

drag : 0.0012158
ExecutionTime = 6.4 s  ClockTime = 7 s

Iteration 10|500
Time = 0.02

smoothSolver:  Solving for Ux, Initial residual = 0.0119296, Final residual = 5.57849e-05, No Iterations 3
smoothSolver:  Solving for Uy, Initial residual = 0.101039, Final residual = 4.91354e-06, No Iterations 6
smoothSolver:  Solving for Uz, Initial residual = 0.0948585, Final residual = 1.44698e-05, No Iterations 6
GAMG:  Solving for p, Initial residual = 0.208325, Final residual = 0.00201016, No Iterations 51
time step continuity errors : sum local = 2.67839e-08, global = -1.22648e-09, cumulative = 2.50799e-09
smoothSolver:  Solving for omega, Initial residual = 0.00300655, Final residual = 3.98555e-06, No Iterations 3
smoothSolver:  Solving for k, Initial residual = 0.00680844, Final residual = 1.37826e-05, No Iterations 3

drag : 0.00130017
ExecutionTime = 6.98 s  ClockTime = 7 s

Iteration 11|500
Time = 0.022

smoothSolver:  Solving for Ux, Initial residual = 0.00785788, Final residual = 3.78311e-05, No Iterations 3
smoothSolver:  Solving for Uy, Initial residual = 0.0834085, Final residual = 5.43899e-06, No Iterations 6
smoothSolver:  Solving for Uz, Initial residual = 0.076963, Final residual = 1.37573e-05, No Iterations 6
GAMG:  Solving for p, Initial residual = 0.26919, Final residual = 0.00267181, No Iterations 53
time step continuity errors : sum local = 2.77209e-08, global = -1.22195e-09, cumulative = 1.28604e-09
smoothSolver:  Solving for omega, Initial residual = 0.00219096, Final residual = 2.48238e-06, No Iterations 3
smoothSolver:  Solving for k, Initial residual = 0.00478377, Final residual = 6.79447e-06, No Iterations 3

drag : 0.00148957
ExecutionTime = 7.57 s  ClockTime = 8 s

Iteration 12|500
Time = 0.024

smoothSolver:  Solving for Ux, Initial residual = 0.0057991, Final residual = 3.13234e-05, No Iterations 3
smoothSolver:  Solving for Uy, Initial residual = 0.0699411, Final residual = 6.95097e-06, No Iterations 6
smoothSolver:  Solving for Uz, Initial residual = 0.0607117, Final residual = 0.000544274, No Iterations 3
GAMG:  Solving for p, Initial residual = 0.361394, Final residual = 0.00356549, No Iterations 51
time step continuity errors : sum local = 2.69137e-08, global = -1.17553e-09, cumulative = 1.10507e-10
smoothSolver:  Solving for omega, Initial residual = 0.00162179, Final residual = 2.10834e-06, No Iterations 3
smoothSolver:  Solving for k, Initial residual = 0.00344143, Final residual = 3.70353e-06, No Iterations 3

drag : 0.0017328
ExecutionTime = 8.15 s  ClockTime = 9 s

Iteration 13|500
Time = 0.026

smoothSolver:  Solving for Ux, Initial residual = 0.00605227, Final residual = 3.28156e-05, No Iterations 3
smoothSolver:  Solving for Uy, Initial residual = 0.0617962, Final residual = 0.000423162, No Iterations 3
smoothSolver:  Solving for Uz, Initial residual = 0.0515035, Final residual = 0.000374184, No Iterations 3
GAMG:  Solving for p, Initial residual = 0.37898, Final residual = 0.00373051, No Iterations 48
time step continuity errors : sum local = 2.40461e-08, global = -1.06479e-09, cumulative = -9.54278e-10
smoothSolver:  Solving for omega, Initial residual = 0.00121774, Final residual = 1.65752e-06, No Iterations 3
smoothSolver:  Solving for k, Initial residual = 0.00253126, Final residual = 3.13824e-06, No Iterations 3

drag : 0.00197695
ExecutionTime = 8.71 s  ClockTime = 9 s

Iteration 14|500
Time = 0.028

smoothSolver:  Solving for Ux, Initial residual = 0.00647997, Final residual = 3.37376e-05, No Iterations 3
smoothSolver:  Solving for Uy, Initial residual = 0.0562831, Final residual = 0.00035308, No Iterations 3
smoothSolver:  Solving for Uz, Initial residual = 0.0448843, Final residual = 0.000291919, No Iterations 3
GAMG:  Solving for p, Initial residual = 0.299818, Final residual = 0.00291193, No Iterations 43
time step continuity errors : sum local = 2.08011e-08, global = 9.02901e-10, cumulative = -5.13766e-11
smoothSolver:  Solving for omega, Initial residual = 0.000925867, Final residual = 1.28652e-06, No Iterations 3
smoothSolver:  Solving for k, Initial residual = 0.00189906, Final residual = 2.44973e-06, No Iterations 3

drag : 0.00218037
ExecutionTime = 9.26 s  ClockTime = 10 s

Iteration 15|500
Time = 0.03

smoothSolver:  Solving for Ux, Initial residual = 0.00591022, Final residual = 3.1482e-05, No Iterations 3
smoothSolver:  Solving for Uy, Initial residual = 0.0516559, Final residual = 0.000369955, No Iterations 3
smoothSolver:  Solving for Uz, Initial residual = 0.0420662, Final residual = 0.000267494, No Iterations 3
GAMG:  Solving for p, Initial residual = 0.290339, Final residual = 0.00283541, No Iterations 43
time step continuity errors : sum local = 1.98427e-08, global = 9.02439e-10, cumulative = 8.51063e-10
smoothSolver:  Solving for omega, Initial residual = 0.000710919, Final residual = 1.01814e-06, No Iterations 3
smoothSolver:  Solving for k, Initial residual = 0.00144812, Final residual = 1.86145e-06, No Iterations 3

drag : 0.00232102
ExecutionTime = 9.81 s  ClockTime = 10 s

Iteration 16|500
Time = 0.032

smoothSolver:  Solving for Ux, Initial residual = 0.00467083, Final residual = 2.77296e-05, No Iterations 3
smoothSolver:  Solving for Uy, Initial residual = 0.0471537, Final residual = 0.000375185, No Iterations 3
smoothSolver:  Solving for Uz, Initial residual = 0.0398789, Final residual = 0.000233677, No Iterations 3
GAMG:  Solving for p, Initial residual = 0.305245, Final residual = 0.00291866, No Iterations 45
time step continuity errors : sum local = 1.82412e-08, global = 8.44372e-10, cumulative = 1.69544e-09
smoothSolver:  Solving for omega, Initial residual = 0.000550389, Final residual = 8.49239e-07, No Iterations 3
smoothSolver:  Solving for k, Initial residual = 0.00111836, Final residual = 1.43048e-06, No Iterations 3

drag : 0.00239607
ExecutionTime = 10.36 s  ClockTime = 11 s

Iteration 17|500
Time = 0.034

smoothSolver:  Solving for Ux, Initial residual = 0.00362938, Final residual = 2.31378e-05, No Iterations 3
smoothSolver:  Solving for Uy, Initial residual = 0.0462856, Final residual = 0.000345792, No Iterations 3
smoothSolver:  Solving for Uz, Initial residual = 0.0384926, Final residual = 0.000194428, No Iterations 3
GAMG:  Solving for p, Initial residual = 0.331768, Final residual = 0.00330251, No Iterations 45
time step continuity errors : sum local = 1.72684e-08, global = 8.08298e-10, cumulative = 2.50373e-09
smoothSolver:  Solving for omega, Initial residual = 0.000429285, Final residual = 6.98868e-07, No Iterations 3
smoothSolver:  Solving for k, Initial residual = 0.000871415, Final residual = 1.16786e-06, No Iterations 3

drag : 0.00241751
ExecutionTime = 10.89 s  ClockTime = 11 s

Iteration 18|500
Time = 0.036

smoothSolver:  Solving for Ux, Initial residual = 0.00316693, Final residual = 1.84808e-05, No Iterations 3
smoothSolver:  Solving for Uy, Initial residual = 0.0439241, Final residual = 0.000278914, No Iterations 3
smoothSolver:  Solving for Uz, Initial residual = 0.0365303, Final residual = 0.00017535, No Iterations 3
GAMG:  Solving for p, Initial residual = 0.333328, Final residual = 0.00319436, No Iterations 44
time step continuity errors : sum local = 1.50166e-08, global = 6.81914e-10, cumulative = 3.18565e-09
smoothSolver:  Solving for omega, Initial residual = 0.000337159, Final residual = 5.69815e-07, No Iterations 3
smoothSolver:  Solving for k, Initial residual = 0.000683095, Final residual = 9.6782e-07, No Iterations 3

drag : 0.00240467
ExecutionTime = 11.43 s  ClockTime = 12 s

Iteration 19|500
Time = 0.038

smoothSolver:  Solving for Ux, Initial residual = 0.00320018, Final residual = 1.44706e-05, No Iterations 3
smoothSolver:  Solving for Uy, Initial residual = 0.0410787, Final residual = 0.00021357, No Iterations 3
smoothSolver:  Solving for Uz, Initial residual = 0.0339842, Final residual = 0.000156072, No Iterations 3
GAMG:  Solving for p, Initial residual = 0.291577, Final residual = 0.00291559, No Iterations 41
time step continuity errors : sum local = 1.48044e-08, global = -7.67816e-10, cumulative = 2.41783e-09
smoothSolver:  Solving for omega, Initial residual = 0.00026659, Final residual = 4.64766e-07, No Iterations 3
smoothSolver:  Solving for k, Initial residual = 0.000537048, Final residual = 7.91922e-07, No Iterations 3

drag : 0.00237659
ExecutionTime = 11.96 s  ClockTime = 12 s

Iteration 20|500
Time = 0.04

smoothSolver:  Solving for Ux, Initial residual = 0.00318143, Final residual = 1.14818e-05, No Iterations 3
smoothSolver:  Solving for Uy, Initial residual = 0.0383458, Final residual = 0.000172593, No Iterations 3
smoothSolver:  Solving for Uz, Initial residual = 0.0316106, Final residual = 0.000145277, No Iterations 3
GAMG:  Solving for p, Initial residual = 0.26726, Final residual = 0.00255038, No Iterations 39
time step continuity errors : sum local = 1.33161e-08, global = -6.41606e-10, cumulative = 1.77622e-09
smoothSolver:  Solving for omega, Initial residual = 0.000212804, Final residual = 3.80985e-07, No Iterations 3
smoothSolver:  Solving for k, Initial residual = 0.000423183, Final residual = 6.48622e-07, No Iterations 3

drag : 0.0023476
ExecutionTime = 12.48 s  ClockTime = 13 s

Iteration 21|500
Time = 0.042

smoothSolver:  Solving for Ux, Initial residual = 0.00301016, Final residual = 9.13271e-06, No Iterations 3
smoothSolver:  Solving for Uy, Initial residual = 0.0356704, Final residual = 0.000162586, No Iterations 3
smoothSolver:  Solving for Uz, Initial residual = 0.0292632, Final residual = 0.000143743, No Iterations 3
GAMG:  Solving for p, Initial residual = 0.246462, Final residual = 0.00246119, No Iterations 38
time step continuity errors : sum local = 1.27043e-08, global = 5.51353e-10, cumulative = 2.32758e-09
smoothSolver:  Solving for omega, Initial residual = 0.000171834, Final residual = 3.1282e-07, No Iterations 3
smoothSolver:  Solving for k, Initial residual = 0.000334004, Final residual = 5.37365e-07, No Iterations 3

drag : 0.00232506
ExecutionTime = 13.06 s  ClockTime = 13 s

Iteration 22|500
Time = 0.044

smoothSolver:  Solving for Ux, Initial residual = 0.00271845, Final residual = 7.26521e-06, No Iterations 3
smoothSolver:  Solving for Uy, Initial residual = 0.032134, Final residual = 0.000154928, No Iterations 3
smoothSolver:  Solving for Uz, Initial residual = 0.0267741, Final residual = 0.000138013, No Iterations 3
GAMG:  Solving for p, Initial residual = 0.233268, Final residual = 0.0022485, No Iterations 41
time step continuity errors : sum local = 1.10944e-08, global = -5.02138e-10, cumulative = 1.82544e-09
smoothSolver:  Solving for omega, Initial residual = 0.000140674, Final residual = 2.5808e-07, No Iterations 3
smoothSolver:  Solving for k, Initial residual = 0.000264055, Final residual = 4.47655e-07, No Iterations 3

drag : 0.00230971
ExecutionTime = 13.63 s  ClockTime = 14 s

Iteration 23|500
Time = 0.046

smoothSolver:  Solving for Ux, Initial residual = 0.00236247, Final residual = 6.07127e-06, No Iterations 3
smoothSolver:  Solving for Uy, Initial residual = 0.0277142, Final residual = 0.000145322, No Iterations 3
smoothSolver:  Solving for Uz, Initial residual = 0.0249004, Final residual = 0.000123258, No Iterations 3
GAMG:  Solving for p, Initial residual = 0.233227, Final residual = 0.00223296, No Iterations 43
time step continuity errors : sum local = 1.02185e-08, global = -4.63462e-10, cumulative = 1.36198e-09
smoothSolver:  Solving for omega, Initial residual = 0.000117143, Final residual = 2.1523e-07, No Iterations 3
smoothSolver:  Solving for k, Initial residual = 0.000210329, Final residual = 3.73474e-07, No Iterations 3

drag : 0.00229791
ExecutionTime = 14.37 s  ClockTime = 15 s

Iteration 24|500
Time = 0.048

smoothSolver:  Solving for Ux, Initial residual = 0.00209684, Final residual = 5.49325e-06, No Iterations 3
smoothSolver:  Solving for Uy, Initial residual = 0.0256633, Final residual = 0.000129403, No Iterations 3
smoothSolver:  Solving for Uz, Initial residual = 0.0239452, Final residual = 0.000106074, No Iterations 3
GAMG:  Solving for p, Initial residual = 0.240014, Final residual = 0.00229689, No Iterations 43
time step continuity errors : sum local = 9.57059e-09, global = -4.35564e-10, cumulative = 9.26414e-10
smoothSolver:  Solving for omega, Initial residual = 9.95268e-05, Final residual = 1.82564e-07, No Iterations 3
smoothSolver:  Solving for k, Initial residual = 0.000174792, Final residual = 3.14095e-07, No Iterations 3

drag : 0.00228461
ExecutionTime = 14.99 s  ClockTime = 15 s

Iteration 25|500
Time = 0.05

smoothSolver:  Solving for Ux, Initial residual = 0.0019281, Final residual = 5.31713e-06, No Iterations 3
smoothSolver:  Solving for Uy, Initial residual = 0.0239253, Final residual = 0.000109487, No Iterations 3
smoothSolver:  Solving for Uz, Initial residual = 0.022597, Final residual = 8.85652e-05, No Iterations 3
GAMG:  Solving for p, Initial residual = 0.245601, Final residual = 0.00241513, No Iterations 41
time step continuity errors : sum local = 9.13523e-09, global = 4.40727e-10, cumulative = 1.36714e-09
smoothSolver:  Solving for omega, Initial residual = 8.59873e-05, Final residual = 1.57194e-07, No Iterations 3
smoothSolver:  Solving for k, Initial residual = 0.000150199, Final residual = 2.66822e-07, No Iterations 3

drag : 0.00226569
ExecutionTime = 15.66 s  ClockTime = 16 s

Iteration 26|500
Time = 0.052

smoothSolver:  Solving for Ux, Initial residual = 0.00175276, Final residual = 5.08707e-06, No Iterations 3
smoothSolver:  Solving for Uy, Initial residual = 0.0215169, Final residual = 9.11726e-05, No Iterations 3
smoothSolver:  Solving for Uz, Initial residual = 0.0208592, Final residual = 8.06205e-05, No Iterations 3
GAMG:  Solving for p, Initial residual = 0.247212, Final residual = 0.0024371, No Iterations 39
time step continuity errors : sum local = 8.43376e-09, global = 4.11728e-10, cumulative = 1.77887e-09
smoothSolver:  Solving for omega, Initial residual = 7.54401e-05, Final residual = 1.36344e-07, No Iterations 3
smoothSolver:  Solving for k, Initial residual = 0.000132827, Final residual = 2.30111e-07, No Iterations 3

drag : 0.00223894
ExecutionTime = 16.22 s  ClockTime = 17 s

Iteration 27|500
Time = 0.054

smoothSolver:  Solving for Ux, Initial residual = 0.00156356, Final residual = 4.9336e-06, No Iterations 3
smoothSolver:  Solving for Uy, Initial residual = 0.0185775, Final residual = 7.58431e-05, No Iterations 3
smoothSolver:  Solving for Uz, Initial residual = 0.0188685, Final residual = 7.16521e-05, No Iterations 3
GAMG:  Solving for p, Initial residual = 0.244021, Final residual = 0.002426, No Iterations 36
time step continuity errors : sum local = 7.75e-09, global = -3.01642e-10, cumulative = 1.47723e-09
smoothSolver:  Solving for omega, Initial residual = 6.73413e-05, Final residual = 1.1887e-07, No Iterations 3
smoothSolver:  Solving for k, Initial residual = 0.000120763, Final residual = 2.00456e-07, No Iterations 3

drag : 0.0022046
ExecutionTime = 16.78 s  ClockTime = 17 s

Iteration 28|500
Time = 0.056

smoothSolver:  Solving for Ux, Initial residual = 0.00139169, Final residual = 4.47809e-06, No Iterations 3
smoothSolver:  Solving for Uy, Initial residual = 0.0156383, Final residual = 6.37514e-05, No Iterations 3
smoothSolver:  Solving for Uz, Initial residual = 0.0169307, Final residual = 6.22078e-05, No Iterations 3
GAMG:  Solving for p, Initial residual = 0.239034, Final residual = 0.00232719, No Iterations 36
time step continuity errors : sum local = 6.95404e-09, global = -2.68103e-10, cumulative = 1.20912e-09
smoothSolver:  Solving for omega, Initial residual = 6.11132e-05, Final residual = 1.04008e-07, No Iterations 3
smoothSolver:  Solving for k, Initial residual = 0.000112476, Final residual = 1.761e-07, No Iterations 3

drag : 0.00216487
ExecutionTime = 17.32 s  ClockTime = 18 s

Iteration 29|500
Time = 0.058

smoothSolver:  Solving for Ux, Initial residual = 0.00122527, Final residual = 3.91404e-06, No Iterations 3
smoothSolver:  Solving for Uy, Initial residual = 0.0131716, Final residual = 5.61339e-05, No Iterations 3
smoothSolver:  Solving for Uz, Initial residual = 0.0154312, Final residual = 5.38341e-05, No Iterations 3
GAMG:  Solving for p, Initial residual = 0.231111, Final residual = 0.00229244, No Iterations 36
time step continuity errors : sum local = 6.49174e-09, global = -2.53301e-10, cumulative = 9.55823e-10
smoothSolver:  Solving for omega, Initial residual = 5.61427e-05, Final residual = 9.14298e-08, No Iterations 3
smoothSolver:  Solving for k, Initial residual = 0.000106111, Final residual = 1.5571e-07, No Iterations 3

drag : 0.00212287
ExecutionTime = 17.97 s  ClockTime = 18 s

Iteration 30|500
Time = 0.06

smoothSolver:  Solving for Ux, Initial residual = 0.00109488, Final residual = 3.44115e-06, No Iterations 3
smoothSolver:  Solving for Uy, Initial residual = 0.0114547, Final residual = 5.06842e-05, No Iterations 3
smoothSolver:  Solving for Uz, Initial residual = 0.0145027, Final residual = 4.99742e-05, No Iterations 3
GAMG:  Solving for p, Initial residual = 0.222928, Final residual = 0.0021489, No Iterations 37
time step continuity errors : sum local = 5.83197e-09, global = 2.40465e-10, cumulative = 1.19629e-09
smoothSolver:  Solving for omega, Initial residual = 5.20171e-05, Final residual = 7.97383e-08, No Iterations 3
smoothSolver:  Solving for k, Initial residual = 0.000100855, Final residual = 1.38492e-07, No Iterations 3

drag : 0.00208154
ExecutionTime = 18.59 s  ClockTime = 19 s

Iteration 31|500
Time = 0.062

smoothSolver:  Solving for Ux, Initial residual = 0.00105032, Final residual = 3.06474e-06, No Iterations 3
smoothSolver:  Solving for Uy, Initial residual = 0.0106319, Final residual = 4.52266e-05, No Iterations 3
smoothSolver:  Solving for Uz, Initial residual = 0.0140806, Final residual = 4.64636e-05, No Iterations 3
GAMG:  Solving for p, Initial residual = 0.212526, Final residual = 0.00207019, No Iterations 39
time step continuity errors : sum local = 5.42498e-09, global = 2.16597e-10, cumulative = 1.41288e-09
smoothSolver:  Solving for omega, Initial residual = 4.82e-05, Final residual = 7.01985e-08, No Iterations 3
smoothSolver:  Solving for k, Initial residual = 9.65336e-05, Final residual = 1.22836e-07, No Iterations 3

drag : 0.00204316
ExecutionTime = 19.26 s  ClockTime = 20 s

Iteration 32|500
Time = 0.064

smoothSolver:  Solving for Ux, Initial residual = 0.00102307, Final residual = 2.69532e-06, No Iterations 3
smoothSolver:  Solving for Uy, Initial residual = 0.0103164, Final residual = 4.00963e-05, No Iterations 3
smoothSolver:  Solving for Uz, Initial residual = 0.0137347, Final residual = 4.34418e-05, No Iterations 3
GAMG:  Solving for p, Initial residual = 0.202037, Final residual = 0.00200196, No Iterations 41
time step continuity errors : sum local = 5.08566e-09, global = -2.05811e-10, cumulative = 1.20707e-09
smoothSolver:  Solving for omega, Initial residual = 4.46569e-05, Final residual = 6.18745e-08, No Iterations 3
smoothSolver:  Solving for k, Initial residual = 9.3019e-05, Final residual = 1.09468e-07, No Iterations 3

drag : 0.00200885
ExecutionTime = 19.93 s  ClockTime = 20 s

Iteration 33|500
Time = 0.066

smoothSolver:  Solving for Ux, Initial residual = 0.000992262, Final residual = 2.40865e-06, No Iterations 3
smoothSolver:  Solving for Uy, Initial residual = 0.0100153, Final residual = 3.56419e-05, No Iterations 3
smoothSolver:  Solving for Uz, Initial residual = 0.0132053, Final residual = 4.15555e-05, No Iterations 3
GAMG:  Solving for p, Initial residual = 0.193611, Final residual = 0.00192105, No Iterations 40
time step continuity errors : sum local = 4.72939e-09, global = 1.86404e-10, cumulative = 1.39348e-09
smoothSolver:  Solving for omega, Initial residual = 4.17267e-05, Final residual = 5.49353e-08, No Iterations 3
smoothSolver:  Solving for k, Initial residual = 8.98724e-05, Final residual = 9.78381e-08, No Iterations 3

drag : 0.00197859
ExecutionTime = 20.42 s  ClockTime = 21 s

Iteration 34|500
Time = 0.068

smoothSolver:  Solving for Ux, Initial residual = 0.000950699, Final residual = 2.19506e-06, No Iterations 3
smoothSolver:  Solving for Uy, Initial residual = 0.00952448, Final residual = 3.18113e-05, No Iterations 3
smoothSolver:  Solving for Uz, Initial residual = 0.0125808, Final residual = 4.04618e-05, No Iterations 3
GAMG:  Solving for p, Initial residual = 0.185659, Final residual = 0.001839, No Iterations 38
time step continuity errors : sum local = 4.38665e-09, global = 1.65049e-10, cumulative = 1.55853e-09
smoothSolver:  Solving for omega, Initial residual = 3.94064e-05, Final residual = 4.91795e-08, No Iterations 3
smoothSolver:  Solving for k, Initial residual = 8.70051e-05, Final residual = 8.77581e-08, No Iterations 3

drag : 0.00195169
ExecutionTime = 20.96 s  ClockTime = 21 s

Iteration 35|500
Time = 0.07

smoothSolver:  Solving for Ux, Initial residual = 0.000892616, Final residual = 2.00091e-06, No Iterations 3
smoothSolver:  Solving for Uy, Initial residual = 0.00880546, Final residual = 2.78423e-05, No Iterations 3
smoothSolver:  Solving for Uz, Initial residual = 0.0118725, Final residual = 3.86121e-05, No Iterations 3
GAMG:  Solving for p, Initial residual = 0.175969, Final residual = 0.00173814, No Iterations 37
time step continuity errors : sum local = 4.01573e-09, global = 1.43153e-10, cumulative = 1.70168e-09
smoothSolver:  Solving for omega, Initial residual = 3.76071e-05, Final residual = 4.44094e-08, No Iterations 3
smoothSolver:  Solving for k, Initial residual = 8.43976e-05, Final residual = 7.93023e-08, No Iterations 3

drag : 0.00192721
ExecutionTime = 21.53 s  ClockTime = 22 s

Iteration 36|500
Time = 0.072

smoothSolver:  Solving for Ux, Initial residual = 0.000823062, Final residual = 1.79624e-06, No Iterations 3
smoothSolver:  Solving for Uy, Initial residual = 0.00792127, Final residual = 2.39676e-05, No Iterations 3
smoothSolver:  Solving for Uz, Initial residual = 0.0111838, Final residual = 3.64995e-05, No Iterations 3
GAMG:  Solving for p, Initial residual = 0.165751, Final residual = 0.00158641, No Iterations 38
time step continuity errors : sum local = 3.5459e-09, global = -1.27733e-10, cumulative = 1.57395e-09
smoothSolver:  Solving for omega, Initial residual = 3.61315e-05, Final residual = 4.02888e-08, No Iterations 3
smoothSolver:  Solving for k, Initial residual = 8.19443e-05, Final residual = 7.21064e-08, No Iterations 3

drag : 0.00190442
ExecutionTime = 22.1 s  ClockTime = 23 s

Iteration 37|500
Time = 0.074

smoothSolver:  Solving for Ux, Initial residual = 0.000750962, Final residual = 1.63403e-06, No Iterations 3
smoothSolver:  Solving for Uy, Initial residual = 0.00694014, Final residual = 2.0186e-05, No Iterations 3
smoothSolver:  Solving for Uz, Initial residual = 0.0103551, Final residual = 3.31138e-05, No Iterations 3
GAMG:  Solving for p, Initial residual = 0.156343, Final residual = 0.00156007, No Iterations 37
time step continuity errors : sum local = 3.36953e-09, global = 1.22842e-10, cumulative = 1.69679e-09
smoothSolver:  Solving for omega, Initial residual = 3.47988e-05, Final residual = 3.69644e-08, No Iterations 3
smoothSolver:  Solving for k, Initial residual = 7.95997e-05, Final residual = 6.5755e-08, No Iterations 3

drag : 0.00188283
ExecutionTime = 22.66 s  ClockTime = 23 s

Iteration 38|500
Time = 0.076

smoothSolver:  Solving for Ux, Initial residual = 0.000677907, Final residual = 1.50226e-06, No Iterations 3
smoothSolver:  Solving for Uy, Initial residual = 0.00601316, Final residual = 1.68859e-05, No Iterations 3
smoothSolver:  Solving for Uz, Initial residual = 0.0095717, Final residual = 3.09562e-05, No Iterations 3
GAMG:  Solving for p, Initial residual = 0.148274, Final residual = 0.0014399, No Iterations 38
time step continuity errors : sum local = 2.9999e-09, global = -1.19296e-10, cumulative = 1.57749e-09
smoothSolver:  Solving for omega, Initial residual = 3.34945e-05, Final residual = 3.43618e-08, No Iterations 3
smoothSolver:  Solving for k, Initial residual = 7.73112e-05, Final residual = 6.001e-08, No Iterations 3

drag : 0.0018622
ExecutionTime = 23.22 s  ClockTime = 24 s

Iteration 39|500
Time = 0.078

smoothSolver:  Solving for Ux, Initial residual = 0.000607254, Final residual = 1.41285e-06, No Iterations 3
smoothSolver:  Solving for Uy, Initial residual = 0.0051984, Final residual = 1.44524e-05, No Iterations 3
smoothSolver:  Solving for Uz, Initial residual = 0.00891457, Final residual = 2.94543e-05, No Iterations 3
GAMG:  Solving for p, Initial residual = 0.141743, Final residual = 0.00138952, No Iterations 39
time step continuity errors : sum local = 2.794e-09, global = 1.15294e-10, cumulative = 1.69279e-09
smoothSolver:  Solving for omega, Initial residual = 3.21514e-05, Final residual = 3.2082e-08, No Iterations 3
smoothSolver:  Solving for k, Initial residual = 7.49962e-05, Final residual = 5.5086e-08, No Iterations 3

drag : 0.00184254
ExecutionTime = 23.79 s  ClockTime = 24 s

Iteration 40|500
Time = 0.08

smoothSolver:  Solving for Ux, Initial residual = 0.000540466, Final residual = 1.31911e-06, No Iterations 3
smoothSolver:  Solving for Uy, Initial residual = 0.00457803, Final residual = 1.33658e-05, No Iterations 3
smoothSolver:  Solving for Uz, Initial residual = 0.00833988, Final residual = 2.92152e-05, No Iterations 3
GAMG:  Solving for p, Initial residual = 0.135097, Final residual = 0.00130751, No Iterations 40
time step continuity errors : sum local = 2.53953e-09, global = -1.04774e-10, cumulative = 1.58801e-09
smoothSolver:  Solving for omega, Initial residual = 3.07108e-05, Final residual = 3.00038e-08, No Iterations 3
smoothSolver:  Solving for k, Initial residual = 7.25519e-05, Final residual = 5.09696e-08, No Iterations 3

drag : 0.00182395
ExecutionTime = 24.4 s  ClockTime = 25 s

Iteration 41|500
Time = 0.082

smoothSolver:  Solving for Ux, Initial residual = 0.000489483, Final residual = 1.225e-06, No Iterations 3
smoothSolver:  Solving for Uy, Initial residual = 0.00415584, Final residual = 1.27523e-05, No Iterations 3
smoothSolver:  Solving for Uz, Initial residual = 0.00794975, Final residual = 2.82439e-05, No Iterations 3
GAMG:  Solving for p, Initial residual = 0.128957, Final residual = 0.00127865, No Iterations 40
time step continuity errors : sum local = 2.40408e-09, global = 9.21162e-11, cumulative = 1.68013e-09
smoothSolver:  Solving for omega, Initial residual = 2.92763e-05, Final residual = 2.80558e-08, No Iterations 3
smoothSolver:  Solving for k, Initial residual = 7.01065e-05, Final residual = 4.72489e-08, No Iterations 3

drag : 0.0018067
ExecutionTime = 25.04 s  ClockTime = 25 s

Iteration 42|500
Time = 0.084

smoothSolver:  Solving for Ux, Initial residual = 0.000452345, Final residual = 1.14082e-06, No Iterations 3
smoothSolver:  Solving for Uy, Initial residual = 0.00390426, Final residual = 1.24806e-05, No Iterations 3
smoothSolver:  Solving for Uz, Initial residual = 0.00759714, Final residual = 2.77827e-05, No Iterations 3
GAMG:  Solving for p, Initial residual = 0.124643, Final residual = 0.00124493, No Iterations 39
time step continuity errors : sum local = 2.27048e-09, global = -9.55314e-11, cumulative = 1.5846e-09
smoothSolver:  Solving for omega, Initial residual = 2.78625e-05, Final residual = 2.61558e-08, No Iterations 3
smoothSolver:  Solving for k, Initial residual = 6.76859e-05, Final residual = 4.38045e-08, No Iterations 3

drag : 0.00179093
ExecutionTime = 25.85 s  ClockTime = 26 s

Iteration 43|500
Time = 0.086

smoothSolver:  Solving for Ux, Initial residual = 0.000423495, Final residual = 1.05561e-06, No Iterations 3
smoothSolver:  Solving for Uy, Initial residual = 0.0037274, Final residual = 1.1951e-05, No Iterations 3
smoothSolver:  Solving for Uz, Initial residual = 0.00726988, Final residual = 2.6619e-05, No Iterations 3
GAMG:  Solving for p, Initial residual = 0.120271, Final residual = 0.00115597, No Iterations 39
time step continuity errors : sum local = 2.04952e-09, global = -8.49035e-11, cumulative = 1.49969e-09
smoothSolver:  Solving for omega, Initial residual = 2.65215e-05, Final residual = 2.43423e-08, No Iterations 3
smoothSolver:  Solving for k, Initial residual = 6.52764e-05, Final residual = 4.06044e-08, No Iterations 3

drag : 0.00177668
ExecutionTime = 26.46 s  ClockTime = 27 s

Iteration 44|500
Time = 0.088

smoothSolver:  Solving for Ux, Initial residual = 0.000400927, Final residual = 9.69273e-07, No Iterations 3
smoothSolver:  Solving for Uy, Initial residual = 0.00356151, Final residual = 1.14513e-05, No Iterations 3
smoothSolver:  Solving for Uz, Initial residual = 0.00695065, Final residual = 2.58103e-05, No Iterations 3
GAMG:  Solving for p, Initial residual = 0.115965, Final residual = 0.00112067, No Iterations 38
time step continuity errors : sum local = 1.93719e-09, global = 7.92065e-11, cumulative = 1.5789e-09
smoothSolver:  Solving for omega, Initial residual = 2.52663e-05, Final residual = 2.25818e-08, No Iterations 3
smoothSolver:  Solving for k, Initial residual = 6.29503e-05, Final residual = 3.75805e-08, No Iterations 3

drag : 0.00176398
ExecutionTime = 26.97 s  ClockTime = 27 s

Iteration 45|500
Time = 0.09

smoothSolver:  Solving for Ux, Initial residual = 0.000381244, Final residual = 8.74268e-07, No Iterations 3
smoothSolver:  Solving for Uy, Initial residual = 0.0033804, Final residual = 1.08996e-05, No Iterations 3
smoothSolver:  Solving for Uz, Initial residual = 0.00666211, Final residual = 2.49146e-05, No Iterations 3
GAMG:  Solving for p, Initial residual = 0.111228, Final residual = 0.00108303, No Iterations 38
time step continuity errors : sum local = 1.83127e-09, global = 7.32142e-11, cumulative = 1.65211e-09
smoothSolver:  Solving for omega, Initial residual = 2.41222e-05, Final residual = 2.08943e-08, No Iterations 3
smoothSolver:  Solving for k, Initial residual = 6.06816e-05, Final residual = 3.4723e-08, No Iterations 3

drag : 0.00175269
ExecutionTime = 27.49 s  ClockTime = 28 s

Iteration 46|500
Time = 0.092

smoothSolver:  Solving for Ux, Initial residual = 0.000361985, Final residual = 7.89571e-07, No Iterations 3
smoothSolver:  Solving for Uy, Initial residual = 0.00321024, Final residual = 1.0093e-05, No Iterations 3
smoothSolver:  Solving for Uz, Initial residual = 0.00634388, Final residual = 2.38533e-05, No Iterations 3
GAMG:  Solving for p, Initial residual = 0.105898, Final residual = 0.00102887, No Iterations 39
time step continuity errors : sum local = 1.70655e-09, global = -6.44466e-11, cumulative = 1.58767e-09
smoothSolver:  Solving for omega, Initial residual = 2.30856e-05, Final residual = 1.93052e-08, No Iterations 3
smoothSolver:  Solving for k, Initial residual = 5.84631e-05, Final residual = 3.20656e-08, No Iterations 3

drag : 0.00174264
ExecutionTime = 28.02 s  ClockTime = 28 s

Iteration 47|500
Time = 0.094

smoothSolver:  Solving for Ux, Initial residual = 0.000341197, Final residual = 7.12598e-07, No Iterations 3
smoothSolver:  Solving for Uy, Initial residual = 0.00297848, Final residual = 9.14663e-06, No Iterations 3
smoothSolver:  Solving for Uz, Initial residual = 0.00599386, Final residual = 2.2308e-05, No Iterations 3
GAMG:  Solving for p, Initial residual = 0.100442, Final residual = 0.000993309, No Iterations 40
time step continuity errors : sum local = 1.6185e-09, global = 6.05624e-11, cumulative = 1.64823e-09
smoothSolver:  Solving for omega, Initial residual = 2.22021e-05, Final residual = 1.78411e-08, No Iterations 3
smoothSolver:  Solving for k, Initial residual = 5.63571e-05, Final residual = 2.96504e-08, No Iterations 3

drag : 0.00173373
ExecutionTime = 28.56 s  ClockTime = 29 s

Iteration 48|500
Time = 0.096

smoothSolver:  Solving for Ux, Initial residual = 0.000323896, Final residual = 6.40324e-07, No Iterations 3
smoothSolver:  Solving for Uy, Initial residual = 0.0027545, Final residual = 8.16477e-06, No Iterations 3
smoothSolver:  Solving for Uz, Initial residual = 0.00567574, Final residual = 2.11236e-05, No Iterations 3
GAMG:  Solving for p, Initial residual = 0.0950912, Final residual = 0.000931349, No Iterations 42
time step continuity errors : sum local = 1.49217e-09, global = 5.44039e-11, cumulative = 1.70263e-09
smoothSolver:  Solving for omega, Initial residual = 2.15085e-05, Final residual = 1.65294e-08, No Iterations 3
smoothSolver:  Solving for k, Initial residual = 5.43245e-05, Final residual = 2.7494e-08, No Iterations 3

drag : 0.00172582
ExecutionTime = 29.11 s  ClockTime = 30 s

Iteration 49|500
Time = 0.098

smoothSolver:  Solving for Ux, Initial residual = 0.000308607, Final residual = 5.89541e-07, No Iterations 3
smoothSolver:  Solving for Uy, Initial residual = 0.0025482, Final residual = 7.41904e-06, No Iterations 3
smoothSolver:  Solving for Uz, Initial residual = 0.00539462, Final residual = 1.99658e-05, No Iterations 3
GAMG:  Solving for p, Initial residual = 0.0898595, Final residual = 0.000868796, No Iterations 44
time step continuity errors : sum local = 1.3699e-09, global = 4.98765e-11, cumulative = 1.75251e-09
smoothSolver:  Solving for omega, Initial residual = 2.09348e-05, Final residual = 1.53402e-08, No Iterations 3
smoothSolver:  Solving for k, Initial residual = 5.2375e-05, Final residual = 2.56152e-08, No Iterations 3

drag : 0.00171892
ExecutionTime = 29.67 s  ClockTime = 30 s

Iteration 50|500
Time = 0.1

smoothSolver:  Solving for Ux, Initial residual = 0.000293783, Final residual = 5.36152e-07, No Iterations 3
smoothSolver:  Solving for Uy, Initial residual = 0.00237608, Final residual = 6.95894e-06, No Iterations 3
smoothSolver:  Solving for Uz, Initial residual = 0.00511205, Final residual = 1.88075e-05, No Iterations 3
GAMG:  Solving for p, Initial residual = 0.085106, Final residual = 0.0008431, No Iterations 44
time step continuity errors : sum local = 1.3089e-09, global = 4.90923e-11, cumulative = 1.8016e-09
smoothSolver:  Solving for omega, Initial residual = 2.04566e-05, Final residual = 1.43e-08, No Iterations 3
smoothSolver:  Solving for k, Initial residual = 5.05141e-05, Final residual = 2.40243e-08, No Iterations 3

drag : 0.00171302
Averaging fields
ExecutionTime = 30.27 s  ClockTime = 31 s

Iteration 51|500
Time = 0.102

smoothSolver:  Solving for Ux, Initial residual = 0.000279522, Final residual = 5.01871e-07, No Iterations 3
smoothSolver:  Solving for Uy, Initial residual = 0.00223336, Final residual = 6.54074e-06, No Iterations 3
smoothSolver:  Solving for Uz, Initial residual = 0.00483676, Final residual = 1.79412e-05, No Iterations 3
GAMG:  Solving for p, Initial residual = 0.0809322, Final residual = 0.000792453, No Iterations 44
time step continuity errors : sum local = 1.21093e-09, global = 4.59717e-11, cumulative = 1.84757e-09
smoothSolver:  Solving for omega, Initial residual = 2.00512e-05, Final residual = 1.34368e-08, No Iterations 3
smoothSolver:  Solving for k, Initial residual = 4.87564e-05, Final residual = 2.27139e-08, No Iterations 3

drag : 0.00170812
Averaging fields
ExecutionTime = 30.86 s  ClockTime = 31 s

Iteration 52|500
Time = 0.104

smoothSolver:  Solving for Ux, Initial residual = 0.000268575, Final residual = 4.65413e-07, No Iterations 3
smoothSolver:  Solving for Uy, Initial residual = 0.00213104, Final residual = 6.24803e-06, No Iterations 3
smoothSolver:  Solving for Uz, Initial residual = 0.00468421, Final residual = 1.72806e-05, No Iterations 3
GAMG:  Solving for p, Initial residual = 0.0773348, Final residual = 0.000761627, No Iterations 43
time step continuity errors : sum local = 1.14503e-09, global = -4.39952e-11, cumulative = 1.80358e-09
smoothSolver:  Solving for omega, Initial residual = 1.96861e-05, Final residual = 1.27265e-08, No Iterations 3
smoothSolver:  Solving for k, Initial residual = 4.71524e-05, Final residual = 2.16737e-08, No Iterations 3

drag : 0.00170422
Averaging fields
ExecutionTime = 31.43 s  ClockTime = 32 s

Iteration 53|500
Time = 0.106

smoothSolver:  Solving for Ux, Initial residual = 0.000257076, Final residual = 4.32657e-07, No Iterations 3
smoothSolver:  Solving for Uy, Initial residual = 0.00202754, Final residual = 5.8496e-06, No Iterations 3
smoothSolver:  Solving for Uz, Initial residual = 0.00452816, Final residual = 1.64019e-05, No Iterations 3
GAMG:  Solving for p, Initial residual = 0.0742695, Final residual = 0.000733844, No Iterations 42
time step continuity errors : sum local = 1.08565e-09, global = 3.71152e-11, cumulative = 1.84069e-09
smoothSolver:  Solving for omega, Initial residual = 1.93434e-05, Final residual = 1.21366e-08, No Iterations 3
smoothSolver:  Solving for k, Initial residual = 4.57124e-05, Final residual = 2.08794e-08, No Iterations 3

drag : 0.00170128
Averaging fields
ExecutionTime = 31.98 s  ClockTime = 32 s

Iteration 54|500
Time = 0.108

smoothSolver:  Solving for Ux, Initial residual = 0.000247041, Final residual = 4.13419e-07, No Iterations 3
smoothSolver:  Solving for Uy, Initial residual = 0.00193476, Final residual = 5.48975e-06, No Iterations 3
smoothSolver:  Solving for Uz, Initial residual = 0.00433619, Final residual = 1.58347e-05, No Iterations 3
GAMG:  Solving for p, Initial residual = 0.0715878, Final residual = 0.000707786, No Iterations 41
time step continuity errors : sum local = 1.03082e-09, global = 1.34276e-11, cumulative = 1.85412e-09
smoothSolver:  Solving for omega, Initial residual = 1.90091e-05, Final residual = 1.16465e-08, No Iterations 3
smoothSolver:  Solving for k, Initial residual = 4.44001e-05, Final residual = 2.02721e-08, No Iterations 3

drag : 0.00169925
Averaging fields
ExecutionTime = 32.75 s  ClockTime = 33 s

Iteration 55|500
Time = 0.11

smoothSolver:  Solving for Ux, Initial residual = 0.000236956, Final residual = 3.92854e-07, No Iterations 3
smoothSolver:  Solving for Uy, Initial residual = 0.00183984, Final residual = 5.06769e-06, No Iterations 3
smoothSolver:  Solving for Uz, Initial residual = 0.00416902, Final residual = 1.51747e-05, No Iterations 3
GAMG:  Solving for p, Initial residual = 0.0688212, Final residual = 0.000681275, No Iterations 42
time step continuity errors : sum local = 9.77272e-10, global = -2.37302e-11, cumulative = 1.83039e-09
smoothSolver:  Solving for omega, Initial residual = 1.86592e-05, Final residual = 1.12441e-08, No Iterations 3
smoothSolver:  Solving for k, Initial residual = 4.31753e-05, Final residual = 1.97773e-08, No Iterations 3

drag : 0.00169804
Averaging fields
ExecutionTime = 33.34 s  ClockTime = 34 s

Iteration 56|500
Time = 0.112

smoothSolver:  Solving for Ux, Initial residual = 0.00022678, Final residual = 3.7548e-07, No Iterations 3
smoothSolver:  Solving for Uy, Initial residual = 0.00174656, Final residual = 4.80269e-06, No Iterations 3
smoothSolver:  Solving for Uz, Initial residual = 0.00400556, Final residual = 1.45719e-05, No Iterations 3
GAMG:  Solving for p, Initial residual = 0.0659847, Final residual = 0.000653937, No Iterations 43
time step continuity errors : sum local = 9.24666e-10, global = 2.18194e-11, cumulative = 1.85221e-09
smoothSolver:  Solving for omega, Initial residual = 1.82993e-05, Final residual = 1.08991e-08, No Iterations 3
smoothSolver:  Solving for k, Initial residual = 4.19919e-05, Final residual = 1.93657e-08, No Iterations 3

drag : 0.00169752
Averaging fields
ExecutionTime = 33.93 s  ClockTime = 34 s

Iteration 57|500
Time = 0.114

smoothSolver:  Solving for Ux, Initial residual = 0.000217453, Final residual = 3.59778e-07, No Iterations 3
smoothSolver:  Solving for Uy, Initial residual = 0.00165266, Final residual = 4.53019e-06, No Iterations 3
smoothSolver:  Solving for Uz, Initial residual = 0.00386469, Final residual = 1.41979e-05, No Iterations 3
GAMG:  Solving for p, Initial residual = 0.0632186, Final residual = 0.00062656, No Iterations 43
time step continuity errors : sum local = 8.74474e-10, global = 2.01164e-11, cumulative = 1.87233e-09
smoothSolver:  Solving for omega, Initial residual = 1.79255e-05, Final residual = 1.0604e-08, No Iterations 3
smoothSolver:  Solving for k, Initial residual = 4.08305e-05, Final residual = 1.90008e-08, No Iterations 3

drag : 0.00169753
Averaging fields
ExecutionTime = 34.53 s  ClockTime = 35 s

Iteration 58|500
Time = 0.116

smoothSolver:  Solving for Ux, Initial residual = 0.00020691, Final residual = 3.50837e-07, No Iterations 3
smoothSolver:  Solving for Uy, Initial residual = 0.00155937, Final residual = 4.22524e-06, No Iterations 3
smoothSolver:  Solving for Uz, Initial residual = 0.00368078, Final residual = 1.37344e-05, No Iterations 3
GAMG:  Solving for p, Initial residual = 0.0602412, Final residual = 0.000582293, No Iterations 43
time step continuity errors : sum local = 8.03356e-10, global = 1.66459e-11, cumulative = 1.88897e-09
smoothSolver:  Solving for omega, Initial residual = 1.75403e-05, Final residual = 1.0344e-08, No Iterations 3
smoothSolver:  Solving for k, Initial residual = 3.96902e-05, Final residual = 1.86613e-08, No Iterations 3

drag : 0.00169791
Averaging fields
ExecutionTime = 35.25 s  ClockTime = 36 s

Iteration 59|500
Time = 0.118

smoothSolver:  Solving for Ux, Initial residual = 0.000197624, Final residual = 3.37933e-07, No Iterations 3
smoothSolver:  Solving for Uy, Initial residual = 0.00147558, Final residual = 3.93182e-06, No Iterations 3
smoothSolver:  Solving for Uz, Initial residual = 0.00351706, Final residual = 1.31323e-05, No Iterations 3
GAMG:  Solving for p, Initial residual = 0.0571837, Final residual = 0.000563221, No Iterations 42
time step continuity errors : sum local = 7.68989e-10, global = -1.87704e-11, cumulative = 1.8702e-09
smoothSolver:  Solving for omega, Initial residual = 1.71533e-05, Final residual = 1.00962e-08, No Iterations 3
smoothSolver:  Solving for k, Initial residual = 3.85791e-05, Final residual = 1.83421e-08, No Iterations 3

drag : 0.00169857
Averaging fields
ExecutionTime = 35.98 s  ClockTime = 36 s

Iteration 60|500
Time = 0.12

smoothSolver:  Solving for Ux, Initial residual = 0.00018829, Final residual = 3.26819e-07, No Iterations 3
smoothSolver:  Solving for Uy, Initial residual = 0.00138832, Final residual = 3.59919e-06, No Iterations 3
smoothSolver:  Solving for Uz, Initial residual = 0.00333487, Final residual = 1.27375e-05, No Iterations 3
GAMG:  Solving for p, Initial residual = 0.054484, Final residual = 0.000534167, No Iterations 42
time step continuity errors : sum local = 7.23033e-10, global = -2.02353e-11, cumulative = 1.84997e-09
smoothSolver:  Solving for omega, Initial residual = 1.67668e-05, Final residual = 9.8607e-09, No Iterations 3
smoothSolver:  Solving for k, Initial residual = 3.74874e-05, Final residual = 1.80423e-08, No Iterations 3

drag : 0.00169944
Averaging fields
ExecutionTime = 36.54 s  ClockTime = 37 s

Iteration 61|500
Time = 0.122

smoothSolver:  Solving for Ux, Initial residual = 0.00018063, Final residual = 3.15249e-07, No Iterations 3
smoothSolver:  Solving for Uy, Initial residual = 0.00131571, Final residual = 3.2918e-06, No Iterations 3
smoothSolver:  Solving for Uz, Initial residual = 0.00318441, Final residual = 1.2305e-05, No Iterations 3
GAMG:  Solving for p, Initial residual = 0.0519742, Final residual = 0.000508953, No Iterations 42
time step continuity errors : sum local = 6.83845e-10, global = -2.14798e-11, cumulative = 1.82849e-09
smoothSolver:  Solving for omega, Initial residual = 1.63787e-05, Final residual = 9.63752e-09, No Iterations 3
smoothSolver:  Solving for k, Initial residual = 3.64399e-05, Final residual = 1.77426e-08, No Iterations 3

drag : 0.00170049
Averaging fields
ExecutionTime = 37.14 s  ClockTime = 38 s

Iteration 62|500
Time = 0.124

smoothSolver:  Solving for Ux, Initial residual = 0.000172352, Final residual = 3.04231e-07, No Iterations 3
smoothSolver:  Solving for Uy, Initial residual = 0.00124588, Final residual = 3.08736e-06, No Iterations 3
smoothSolver:  Solving for Uz, Initial residual = 0.00305191, Final residual = 1.18258e-05, No Iterations 3
GAMG:  Solving for p, Initial residual = 0.0498217, Final residual = 0.000478601, No Iterations 42
time step continuity errors : sum local = 6.39166e-10, global = -2.07028e-11, cumulative = 1.80778e-09
smoothSolver:  Solving for omega, Initial residual = 1.59848e-05, Final residual = 9.42091e-09, No Iterations 3
smoothSolver:  Solving for k, Initial residual = 3.54186e-05, Final residual = 1.74213e-08, No Iterations 3

drag : 0.00170167
Averaging fields
ExecutionTime = 37.71 s  ClockTime = 38 s

Iteration 63|500
Time = 0.126

smoothSolver:  Solving for Ux, Initial residual = 0.000164918, Final residual = 2.91289e-07, No Iterations 3
smoothSolver:  Solving for Uy, Initial residual = 0.00118253, Final residual = 2.90717e-06, No Iterations 3
smoothSolver:  Solving for Uz, Initial residual = 0.00293367, Final residual = 1.11927e-05, No Iterations 3
GAMG:  Solving for p, Initial residual = 0.0474816, Final residual = 0.000468139, No Iterations 41
time step continuity errors : sum local = 6.2229e-10, global = 2.01279e-11, cumulative = 1.82791e-09
smoothSolver:  Solving for omega, Initial residual = 1.56009e-05, Final residual = 9.20343e-09, No Iterations 3
smoothSolver:  Solving for k, Initial residual = 3.44425e-05, Final residual = 1.70869e-08, No Iterations 3

drag : 0.00170296
Averaging fields
ExecutionTime = 38.36 s  ClockTime = 39 s

Iteration 64|500
Time = 0.128

smoothSolver:  Solving for Ux, Initial residual = 0.000159708, Final residual = 2.7819e-07, No Iterations 3
smoothSolver:  Solving for Uy, Initial residual = 0.00113415, Final residual = 2.74287e-06, No Iterations 3
smoothSolver:  Solving for Uz, Initial residual = 0.00284137, Final residual = 1.05828e-05, No Iterations 3
GAMG:  Solving for p, Initial residual = 0.0451613, Final residual = 0.00044293, No Iterations 41
time step continuity errors : sum local = 5.86648e-10, global = 1.64071e-11, cumulative = 1.84432e-09
smoothSolver:  Solving for omega, Initial residual = 1.52316e-05, Final residual = 8.97424e-09, No Iterations 3
smoothSolver:  Solving for k, Initial residual = 3.35136e-05, Final residual = 1.67455e-08, No Iterations 3

drag : 0.00170433
Averaging fields
ExecutionTime = 38.9 s  ClockTime = 39 s

Iteration 65|500
Time = 0.13

smoothSolver:  Solving for Ux, Initial residual = 0.000154475, Final residual = 2.66843e-07, No Iterations 3
smoothSolver:  Solving for Uy, Initial residual = 0.00109641, Final residual = 2.62898e-06, No Iterations 3
smoothSolver:  Solving for Uz, Initial residual = 0.00276351, Final residual = 1.02756e-05, No Iterations 3
GAMG:  Solving for p, Initial residual = 0.0429845, Final residual = 0.000419295, No Iterations 41
time step continuity errors : sum local = 5.53747e-10, global = 1.01932e-11, cumulative = 1.85451e-09
smoothSolver:  Solving for omega, Initial residual = 1.48542e-05, Final residual = 8.75744e-09, No Iterations 3
smoothSolver:  Solving for k, Initial residual = 3.26431e-05, Final residual = 1.64081e-08, No Iterations 3

drag : 0.00170575
Averaging fields
ExecutionTime = 39.42 s  ClockTime = 40 s

Iteration 66|500
Time = 0.132

smoothSolver:  Solving for Ux, Initial residual = 0.000149627, Final residual = 2.55638e-07, No Iterations 3
smoothSolver:  Solving for Uy, Initial residual = 0.00107047, Final residual = 2.58231e-06, No Iterations 3
smoothSolver:  Solving for Uz, Initial residual = 0.00268906, Final residual = 9.74221e-06, No Iterations 3
GAMG:  Solving for p, Initial residual = 0.0410748, Final residual = 0.000406231, No Iterations 40
time step continuity errors : sum local = 5.35378e-10, global = -2.95796e-12, cumulative = 1.85155e-09
smoothSolver:  Solving for omega, Initial residual = 1.44834e-05, Final residual = 8.54946e-09, No Iterations 3
smoothSolver:  Solving for k, Initial residual = 3.18482e-05, Final residual = 1.60828e-08, No Iterations 3

drag : 0.00170717
Averaging fields
ExecutionTime = 39.96 s  ClockTime = 40 s

Iteration 67|500
Time = 0.134

smoothSolver:  Solving for Ux, Initial residual = 0.000145074, Final residual = 2.45271e-07, No Iterations 3
smoothSolver:  Solving for Uy, Initial residual = 0.00104225, Final residual = 2.52124e-06, No Iterations 3
smoothSolver:  Solving for Uz, Initial residual = 0.0025951, Final residual = 9.16991e-06, No Iterations 3
GAMG:  Solving for p, Initial residual = 0.0391791, Final residual = 0.000389458, No Iterations 40
time step continuity errors : sum local = 5.12431e-10, global = 6.00478e-12, cumulative = 1.85756e-09
smoothSolver:  Solving for omega, Initial residual = 1.41374e-05, Final residual = 8.32825e-09, No Iterations 3
smoothSolver:  Solving for k, Initial residual = 3.11279e-05, Final residual = 1.5769e-08, No Iterations 3

drag : 0.00170861
Averaging fields
ExecutionTime = 40.51 s  ClockTime = 41 s

Iteration 68|500
Time = 0.136

smoothSolver:  Solving for Ux, Initial residual = 0.000140674, Final residual = 2.34733e-07, No Iterations 3
smoothSolver:  Solving for Uy, Initial residual = 0.00101481, Final residual = 2.45634e-06, No Iterations 3
smoothSolver:  Solving for Uz, Initial residual = 0.00249826, Final residual = 8.78996e-06, No Iterations 3
GAMG:  Solving for p, Initial residual = 0.0372526, Final residual = 0.000372348, No Iterations 40
time step continuity errors : sum local = 4.8925e-10, global = 7.35687e-12, cumulative = 1.86492e-09
smoothSolver:  Solving for omega, Initial residual = 1.3813e-05, Final residual = 8.0969e-09, No Iterations 3
smoothSolver:  Solving for k, Initial residual = 3.04908e-05, Final residual = 1.54813e-08, No Iterations 3

drag : 0.00171
Averaging fields
ExecutionTime = 41.05 s  ClockTime = 41 s

Iteration 69|500
Time = 0.138

smoothSolver:  Solving for Ux, Initial residual = 0.000136621, Final residual = 2.25238e-07, No Iterations 3
smoothSolver:  Solving for Uy, Initial residual = 0.00098081, Final residual = 2.40156e-06, No Iterations 3
smoothSolver:  Solving for Uz, Initial residual = 0.0023982, Final residual = 8.29702e-06, No Iterations 3
GAMG:  Solving for p, Initial residual = 0.035341, Final residual = 0.00033977, No Iterations 41
time step continuity errors : sum local = 4.45854e-10, global = -4.95953e-12, cumulative = 1.85996e-09
smoothSolver:  Solving for omega, Initial residual = 1.3503e-05, Final residual = 7.85675e-09, No Iterations 3
smoothSolver:  Solving for k, Initial residual = 2.9937e-05, Final residual = 1.52446e-08, No Iterations 3

drag : 0.00171131
Averaging fields
ExecutionTime = 41.57 s  ClockTime = 42 s

Iteration 70|500
Time = 0.14

smoothSolver:  Solving for Ux, Initial residual = 0.000132916, Final residual = 2.17501e-07, No Iterations 3
smoothSolver:  Solving for Uy, Initial residual = 0.000945766, Final residual = 2.38293e-06, No Iterations 3
smoothSolver:  Solving for Uz, Initial residual = 0.00230592, Final residual = 7.92722e-06, No Iterations 3
GAMG:  Solving for p, Initial residual = 0.0335777, Final residual = 0.00033523, No Iterations 40
time step continuity errors : sum local = 4.39336e-10, global = 7.09258e-12, cumulative = 1.86705e-09
smoothSolver:  Solving for omega, Initial residual = 1.32073e-05, Final residual = 7.60386e-09, No Iterations 3
smoothSolver:  Solving for k, Initial residual = 2.94565e-05, Final residual = 1.49934e-08, No Iterations 3

drag : 0.0017125
Averaging fields
ExecutionTime = 42.1 s  ClockTime = 43 s

Iteration 71|500
Time = 0.142

smoothSolver:  Solving for Ux, Initial residual = 0.000129126, Final residual = 2.09622e-07, No Iterations 3
smoothSolver:  Solving for Uy, Initial residual = 0.000900801, Final residual = 2.2937e-06, No Iterations 3
smoothSolver:  Solving for Uz, Initial residual = 0.00219896, Final residual = 7.60852e-06, No Iterations 3
GAMG:  Solving for p, Initial residual = 0.0318817, Final residual = 0.00030809, No Iterations 41
time step continuity errors : sum local = 4.03267e-10, global = -6.05835e-12, cumulative = 1.86099e-09
smoothSolver:  Solving for omega, Initial residual = 1.29208e-05, Final residual = 7.33978e-09, No Iterations 3
smoothSolver:  Solving for k, Initial residual = 2.90215e-05, Final residual = 1.4727e-08, No Iterations 3

drag : 0.00171356
Averaging fields
ExecutionTime = 42.63 s  ClockTime = 43 s

Iteration 72|500
Time = 0.144

smoothSolver:  Solving for Ux, Initial residual = 0.000125491, Final residual = 2.03596e-07, No Iterations 3
smoothSolver:  Solving for Uy, Initial residual = 0.000859284, Final residual = 2.24691e-06, No Iterations 3
smoothSolver:  Solving for Uz, Initial residual = 0.00211017, Final residual = 7.30104e-06, No Iterations 3
GAMG:  Solving for p, Initial residual = 0.0304139, Final residual = 0.000299393, No Iterations 40
time step continuity errors : sum local = 3.91302e-10, global = 6.92568e-12, cumulative = 1.86792e-09
smoothSolver:  Solving for omega, Initial residual = 1.26413e-05, Final residual = 7.06348e-09, No Iterations 3
smoothSolver:  Solving for k, Initial residual = 2.86198e-05, Final residual = 1.44389e-08, No Iterations 3

drag : 0.00171445
Averaging fields
ExecutionTime = 43.16 s  ClockTime = 44 s

Iteration 73|500
Time = 0.146

smoothSolver:  Solving for Ux, Initial residual = 0.000122225, Final residual = 1.97024e-07, No Iterations 3
smoothSolver:  Solving for Uy, Initial residual = 0.000818441, Final residual = 2.16115e-06, No Iterations 3
smoothSolver:  Solving for Uz, Initial residual = 0.00202128, Final residual = 6.94487e-06, No Iterations 3
GAMG:  Solving for p, Initial residual = 0.0291281, Final residual = 0.00028137, No Iterations 40
time step continuity errors : sum local = 3.67171e-10, global = 7.65244e-12, cumulative = 1.87557e-09
smoothSolver:  Solving for omega, Initial residual = 1.2366e-05, Final residual = 6.78599e-09, No Iterations 3
smoothSolver:  Solving for k, Initial residual = 2.82548e-05, Final residual = 1.41365e-08, No Iterations 3

drag : 0.00171521
Averaging fields
ExecutionTime = 43.68 s  ClockTime = 44 s

Iteration 74|500
Time = 0.148

smoothSolver:  Solving for Ux, Initial residual = 0.00011893, Final residual = 1.90857e-07, No Iterations 3
smoothSolver:  Solving for Uy, Initial residual = 0.000778101, Final residual = 2.06636e-06, No Iterations 3
smoothSolver:  Solving for Uz, Initial residual = 0.00193166, Final residual = 6.65367e-06, No Iterations 3
GAMG:  Solving for p, Initial residual = 0.027777, Final residual = 0.000270231, No Iterations 40
time step continuity errors : sum local = 3.52071e-10, global = 8.93226e-12, cumulative = 1.8845e-09
smoothSolver:  Solving for omega, Initial residual = 1.21004e-05, Final residual = 6.51658e-09, No Iterations 3
smoothSolver:  Solving for k, Initial residual = 2.7914e-05, Final residual = 1.38257e-08, No Iterations 3

drag : 0.00171584
Averaging fields
ExecutionTime = 44.2 s  ClockTime = 45 s

Iteration 75|500
Time = 0.15

smoothSolver:  Solving for Ux, Initial residual = 0.000115622, Final residual = 1.84487e-07, No Iterations 3
smoothSolver:  Solving for Uy, Initial residual = 0.000738833, Final residual = 1.9894e-06, No Iterations 3
smoothSolver:  Solving for Uz, Initial residual = 0.00186474, Final residual = 6.42265e-06, No Iterations 3
GAMG:  Solving for p, Initial residual = 0.0263655, Final residual = 0.000261904, No Iterations 40
time step continuity errors : sum local = 3.40622e-10, global = 9.39127e-12, cumulative = 1.89389e-09
smoothSolver:  Solving for omega, Initial residual = 1.18395e-05, Final residual = 6.25319e-09, No Iterations 3
smoothSolver:  Solving for k, Initial residual = 2.75835e-05, Final residual = 1.35158e-08, No Iterations 3

drag : 0.00171636
Averaging fields
ExecutionTime = 44.72 s  ClockTime = 45 s

Iteration 76|500
Time = 0.152

smoothSolver:  Solving for Ux, Initial residual = 0.000112407, Final residual = 1.77408e-07, No Iterations 3
smoothSolver:  Solving for Uy, Initial residual = 0.000703651, Final residual = 1.8848e-06, No Iterations 3
smoothSolver:  Solving for Uz, Initial residual = 0.0018094, Final residual = 6.12965e-06, No Iterations 3
GAMG:  Solving for p, Initial residual = 0.0250907, Final residual = 0.000243915, No Iterations 41
time step continuity errors : sum local = 3.16627e-10, global = -8.72844e-12, cumulative = 1.88516e-09
smoothSolver:  Solving for omega, Initial residual = 1.15807e-05, Final residual = 5.99691e-09, No Iterations 3
smoothSolver:  Solving for k, Initial residual = 2.72576e-05, Final residual = 1.32001e-08, No Iterations 3

drag : 0.00171678
Averaging fields
ExecutionTime = 45.26 s  ClockTime = 46 s

Iteration 77|500
Time = 0.154

smoothSolver:  Solving for Ux, Initial residual = 0.000109148, Final residual = 1.7028e-07, No Iterations 3
smoothSolver:  Solving for Uy, Initial residual = 0.000669427, Final residual = 1.78576e-06, No Iterations 3
smoothSolver:  Solving for Uz, Initial residual = 0.0017513, Final residual = 5.89553e-06, No Iterations 3
GAMG:  Solving for p, Initial residual = 0.0239743, Final residual = 0.000237938, No Iterations 41
time step continuity errors : sum local = 3.08283e-10, global = -8.2775e-12, cumulative = 1.87689e-09
smoothSolver:  Solving for omega, Initial residual = 1.1319e-05, Final residual = 5.75176e-09, No Iterations 3
smoothSolver:  Solving for k, Initial residual = 2.69316e-05, Final residual = 1.2889e-08, No Iterations 3

drag : 0.0017171
Averaging fields
ExecutionTime = 45.79 s  ClockTime = 46 s

Iteration 78|500
Time = 0.156

smoothSolver:  Solving for Ux, Initial residual = 0.00010585, Final residual = 1.62882e-07, No Iterations 3
smoothSolver:  Solving for Uy, Initial residual = 0.000638187, Final residual = 1.6823e-06, No Iterations 3
smoothSolver:  Solving for Uz, Initial residual = 0.00169785, Final residual = 5.65763e-06, No Iterations 3
GAMG:  Solving for p, Initial residual = 0.0229516, Final residual = 0.000221322, No Iterations 42
time step continuity errors : sum local = 2.86232e-10, global = 6.84432e-12, cumulative = 1.88373e-09
smoothSolver:  Solving for omega, Initial residual = 1.10611e-05, Final residual = 5.52092e-09, No Iterations 3
smoothSolver:  Solving for k, Initial residual = 2.66047e-05, Final residual = 1.2587e-08, No Iterations 3

drag : 0.00171734
Averaging fields
ExecutionTime = 46.34 s  ClockTime = 47 s

Iteration 79|500
Time = 0.158

smoothSolver:  Solving for Ux, Initial residual = 0.00010271, Final residual = 1.55035e-07, No Iterations 3
smoothSolver:  Solving for Uy, Initial residual = 0.000607929, Final residual = 1.5848e-06, No Iterations 3
smoothSolver:  Solving for Uz, Initial residual = 0.00163884, Final residual = 5.38566e-06, No Iterations 3
GAMG:  Solving for p, Initial residual = 0.0218761, Final residual = 0.000212931, No Iterations 42
time step continuity errors : sum local = 2.74875e-10, global = 6.7154e-12, cumulative = 1.89045e-09
smoothSolver:  Solving for omega, Initial residual = 1.08049e-05, Final residual = 5.30716e-09, No Iterations 3
smoothSolver:  Solving for k, Initial residual = 2.62707e-05, Final residual = 1.22976e-08, No Iterations 3

drag : 0.00171749
Averaging fields
ExecutionTime = 46.88 s  ClockTime = 47 s

Iteration 80|500
Time = 0.16

smoothSolver:  Solving for Ux, Initial residual = 9.97055e-05, Final residual = 1.47195e-07, No Iterations 3
smoothSolver:  Solving for Uy, Initial residual = 0.000581891, Final residual = 1.50067e-06, No Iterations 3
smoothSolver:  Solving for Uz, Initial residual = 0.00159428, Final residual = 5.12808e-06, No Iterations 3
GAMG:  Solving for p, Initial residual = 0.0209177, Final residual = 0.000201356, No Iterations 42
time step continuity errors : sum local = 2.59485e-10, global = 6.14434e-12, cumulative = 1.89659e-09
smoothSolver:  Solving for omega, Initial residual = 1.05504e-05, Final residual = 5.112e-09, No Iterations 3
smoothSolver:  Solving for k, Initial residual = 2.59374e-05, Final residual = 1.20174e-08, No Iterations 3

drag : 0.00171754
Averaging fields
ExecutionTime = 47.42 s  ClockTime = 48 s

Iteration 81|500
Time = 0.162

smoothSolver:  Solving for Ux, Initial residual = 9.6592e-05, Final residual = 1.39456e-07, No Iterations 3
smoothSolver:  Solving for Uy, Initial residual = 0.000556239, Final residual = 1.40778e-06, No Iterations 3
smoothSolver:  Solving for Uz, Initial residual = 0.00154366, Final residual = 4.94329e-06, No Iterations 3
GAMG:  Solving for p, Initial residual = 0.0200053, Final residual = 0.000199816, No Iterations 41
time step continuity errors : sum local = 2.57064e-10, global = -6.80278e-12, cumulative = 1.88979e-09
smoothSolver:  Solving for omega, Initial residual = 1.02986e-05, Final residual = 4.93525e-09, No Iterations 3
smoothSolver:  Solving for k, Initial residual = 2.55999e-05, Final residual = 1.17436e-08, No Iterations 3

drag : 0.00171749
Averaging fields
ExecutionTime = 47.94 s  ClockTime = 48 s

Iteration 82|500
Time = 0.164

smoothSolver:  Solving for Ux, Initial residual = 9.37481e-05, Final residual = 1.31231e-07, No Iterations 3
smoothSolver:  Solving for Uy, Initial residual = 0.000532156, Final residual = 1.33975e-06, No Iterations 3
smoothSolver:  Solving for Uz, Initial residual = 0.0014871, Final residual = 4.78221e-06, No Iterations 3
GAMG:  Solving for p, Initial residual = 0.0191664, Final residual = 0.000189791, No Iterations 41
time step continuity errors : sum local = 2.43756e-10, global = -6.76447e-12, cumulative = 1.88302e-09
smoothSolver:  Solving for omega, Initial residual = 1.00502e-05, Final residual = 4.77495e-09, No Iterations 3
smoothSolver:  Solving for k, Initial residual = 2.52646e-05, Final residual = 1.14835e-08, No Iterations 3

drag : 0.00171733
Averaging fields
ExecutionTime = 48.48 s  ClockTime = 49 s

Iteration 83|500
Time = 0.166

smoothSolver:  Solving for Ux, Initial residual = 9.11132e-05, Final residual = 1.23494e-07, No Iterations 3
smoothSolver:  Solving for Uy, Initial residual = 0.000508567, Final residual = 1.27696e-06, No Iterations 3
smoothSolver:  Solving for Uz, Initial residual = 0.00142697, Final residual = 4.58808e-06, No Iterations 3
GAMG:  Solving for p, Initial residual = 0.0183972, Final residual = 0.000177834, No Iterations 41
time step continuity errors : sum local = 2.28034e-10, global = -5.95095e-12, cumulative = 1.87707e-09
smoothSolver:  Solving for omega, Initial residual = 9.80773e-06, Final residual = 4.62736e-09, No Iterations 3
smoothSolver:  Solving for k, Initial residual = 2.49301e-05, Final residual = 1.12403e-08, No Iterations 3

drag : 0.00171706
Averaging fields
ExecutionTime = 49.03 s  ClockTime = 49 s

Iteration 84|500
Time = 0.168

smoothSolver:  Solving for Ux, Initial residual = 8.83662e-05, Final residual = 1.16153e-07, No Iterations 3
smoothSolver:  Solving for Uy, Initial residual = 0.000485156, Final residual = 1.21452e-06, No Iterations 3
smoothSolver:  Solving for Uz, Initial residual = 0.00138217, Final residual = 4.39928e-06, No Iterations 3
GAMG:  Solving for p, Initial residual = 0.0176379, Final residual = 0.000172736, No Iterations 40
time step continuity errors : sum local = 2.2118e-10, global = 5.9269e-12, cumulative = 1.883e-09
smoothSolver:  Solving for omega, Initial residual = 9.56917e-06, Final residual = 4.49161e-09, No Iterations 3
smoothSolver:  Solving for k, Initial residual = 2.45937e-05, Final residual = 1.10158e-08, No Iterations 3

drag : 0.0017167
Averaging fields
ExecutionTime = 49.55 s  ClockTime = 50 s

Iteration 85|500
Time = 0.17

smoothSolver:  Solving for Ux, Initial residual = 8.5608e-05, Final residual = 1.09242e-07, No Iterations 3
smoothSolver:  Solving for Uy, Initial residual = 0.000465886, Final residual = 1.1514e-06, No Iterations 3
smoothSolver:  Solving for Uz, Initial residual = 0.00134523, Final residual = 4.23699e-06, No Iterations 3
GAMG:  Solving for p, Initial residual = 0.0168864, Final residual = 0.000161541, No Iterations 40
time step continuity errors : sum local = 2.0656e-10, global = 5.8866e-12, cumulative = 1.88889e-09
smoothSolver:  Solving for omega, Initial residual = 9.33456e-06, Final residual = 4.36717e-09, No Iterations 3
smoothSolver:  Solving for k, Initial residual = 2.42603e-05, Final residual = 1.08136e-08, No Iterations 3

drag : 0.00171625
Averaging fields
ExecutionTime = 50.07 s  ClockTime = 50 s

Iteration 86|500
Time = 0.172

smoothSolver:  Solving for Ux, Initial residual = 8.28468e-05, Final residual = 1.03062e-07, No Iterations 3
smoothSolver:  Solving for Uy, Initial residual = 0.000446152, Final residual = 1.09835e-06, No Iterations 3
smoothSolver:  Solving for Uz, Initial residual = 0.00131029, Final residual = 4.08227e-06, No Iterations 3
GAMG:  Solving for p, Initial residual = 0.0162661, Final residual = 0.000159495, No Iterations 39
time step continuity errors : sum local = 2.0367e-10, global = -6.2265e-12, cumulative = 1.88266e-09
smoothSolver:  Solving for omega, Initial residual = 9.10511e-06, Final residual = 4.25175e-09, No Iterations 3
smoothSolver:  Solving for k, Initial residual = 2.39332e-05, Final residual = 1.06321e-08, No Iterations 3

drag : 0.00171572
Averaging fields
ExecutionTime = 50.59 s  ClockTime = 51 s

Iteration 87|500
Time = 0.174

smoothSolver:  Solving for Ux, Initial residual = 8.02382e-05, Final residual = 9.72802e-08, No Iterations 3
smoothSolver:  Solving for Uy, Initial residual = 0.000427174, Final residual = 1.04814e-06, No Iterations 3
smoothSolver:  Solving for Uz, Initial residual = 0.00127615, Final residual = 3.94244e-06, No Iterations 3
GAMG:  Solving for p, Initial residual = 0.0156277, Final residual = 0.000151547, No Iterations 39
time step continuity errors : sum local = 1.93276e-10, global = -5.7834e-12, cumulative = 1.87688e-09
smoothSolver:  Solving for omega, Initial residual = 8.88359e-06, Final residual = 4.1441e-09, No Iterations 3
smoothSolver:  Solving for k, Initial residual = 2.3609e-05, Final residual = 1.04676e-08, No Iterations 3

drag : 0.00171514
Averaging fields
ExecutionTime = 51.12 s  ClockTime = 52 s

Iteration 88|500
Time = 0.176

smoothSolver:  Solving for Ux, Initial residual = 7.77967e-05, Final residual = 9.20034e-08, No Iterations 3
smoothSolver:  Solving for Uy, Initial residual = 0.000411358, Final residual = 9.96725e-07, No Iterations 3
smoothSolver:  Solving for Uz, Initial residual = 0.0012416, Final residual = 3.79858e-06, No Iterations 3
GAMG:  Solving for p, Initial residual = 0.0149933, Final residual = 0.00014448, No Iterations 39
time step continuity errors : sum local = 1.84047e-10, global = -5.47476e-12, cumulative = 1.8714e-09
smoothSolver:  Solving for omega, Initial residual = 8.66665e-06, Final residual = 4.04307e-09, No Iterations 3
smoothSolver:  Solving for k, Initial residual = 2.32895e-05, Final residual = 1.03122e-08, No Iterations 3

drag : 0.00171453
Averaging fields
ExecutionTime = 51.66 s  ClockTime = 52 s

Iteration 89|500
Time = 0.178

smoothSolver:  Solving for Ux, Initial residual = 7.52866e-05, Final residual = 8.72117e-08, No Iterations 3
smoothSolver:  Solving for Uy, Initial residual = 0.000397091, Final residual = 9.47756e-07, No Iterations 3
smoothSolver:  Solving for Uz, Initial residual = 0.00120331, Final residual = 3.63446e-06, No Iterations 3
GAMG:  Solving for p, Initial residual = 0.01435, Final residual = 0.000139878, No Iterations 39
time step continuity errors : sum local = 1.77982e-10, global = -4.99229e-12, cumulative = 1.86641e-09
smoothSolver:  Solving for omega, Initial residual = 8.45471e-06, Final residual = 3.94805e-09, No Iterations 3
smoothSolver:  Solving for k, Initial residual = 2.29777e-05, Final residual = 1.01638e-08, No Iterations 3

drag : 0.0017139
Averaging fields
ExecutionTime = 52.17 s  ClockTime = 53 s

Iteration 90|500
Time = 0.18

smoothSolver:  Solving for Ux, Initial residual = 7.31759e-05, Final residual = 8.30918e-08, No Iterations 3
smoothSolver:  Solving for Uy, Initial residual = 0.000384534, Final residual = 9.0021e-07, No Iterations 3
smoothSolver:  Solving for Uz, Initial residual = 0.00116745, Final residual = 3.47157e-06, No Iterations 3
GAMG:  Solving for p, Initial residual = 0.013702, Final residual = 0.000135859, No Iterations 39
time step continuity errors : sum local = 1.72687e-10, global = -4.7155e-12, cumulative = 1.86169e-09
smoothSolver:  Solving for omega, Initial residual = 8.24847e-06, Final residual = 3.85734e-09, No Iterations 3
smoothSolver:  Solving for k, Initial residual = 2.26706e-05, Final residual = 1.00189e-08, No Iterations 3

drag : 0.00171327
Averaging fields
ExecutionTime = 52.68 s  ClockTime = 53 s

Iteration 91|500
Time = 0.182

[...]
smoothSolver:  Solving for Uay, Initial residual = 0.550362, Final residual = 0.0036546, No Iterations 3
smoothSolver:  Solving for Uaz, Initial residual = 0.550506, Final residual = 0.00299143, No Iterations 3
GAMG:  Solving for pa, Initial residual = 0.999028, Final residual = 0.00558739, No Iterations 4
time step continuity errors : sum local = 9.41927e+140, global = -4.29364e+138, cumulative = -2.70918e+138
smoothSolver:  Solving for wa, Initial residual = 0.76561, Final residual = 9.55368e-05, No Iterations 6
smoothSolver:  Solving for ka, Initial residual = 0.856173, Final residual = 0.00012933, No Iterations 6
ExecutionTime = 856.56 s  ClockTime = 857 s

Iteration 190|500
Time = 1.38

smoothSolver:  Solving for Uax, Initial residual = 0.999128, Final residual = 0.000171611, No Iterations 6
smoothSolver:  Solving for Uay, Initial residual = 0.550267, Final residual = 0.00365264, No Iterations 3
smoothSolver:  Solving for Uaz, Initial residual = 0.550474, Final residual = 0.00299098, No Iterations 3
GAMG:  Solving for pa, Initial residual = 0.999028, Final residual = 0.0055884, No Iterations 4
time step continuity errors : sum local = 1.6078e+141, global = 7.34116e+138, cumulative = 4.63198e+138
smoothSolver:  Solving for wa, Initial residual = 0.765587, Final residual = 9.55142e-05, No Iterations 6
smoothSolver:  Solving for ka, Initial residual = 0.856199, Final residual = 0.000129313, No Iterations 6
ExecutionTime = 857.16 s  ClockTime = 858 s

Iteration 191|500
Time = 1.382

smoothSolver:  Solving for Uax, Initial residual = 0.999128, Final residual = 0.000171608, No Iterations 6
smoothSolver:  Solving for Uay, Initial residual = 0.550164, Final residual = 0.00365063, No Iterations 3
smoothSolver:  Solving for Uaz, Initial residual = 0.55044, Final residual = 0.00299058, No Iterations 3
GAMG:  Solving for pa, Initial residual = 0.999027, Final residual = 0.00558942, No Iterations 4
time step continuity errors : sum local = 2.74439e+141, global = -1.25516e+139, cumulative = -7.91964e+138
smoothSolver:  Solving for wa, Initial residual = 0.765561, Final residual = 9.54916e-05, No Iterations 6
smoothSolver:  Solving for ka, Initial residual = 0.856225, Final residual = 0.000129297, No Iterations 6
ExecutionTime = 857.77 s  ClockTime = 858 s

Iteration 192|500
Time = 1.384

smoothSolver:  Solving for Uax, Initial residual = 0.999127, Final residual = 0.000171605, No Iterations 6
smoothSolver:  Solving for Uay, Initial residual = 0.550061, Final residual = 0.00364858, No Iterations 3
smoothSolver:  Solving for Uaz, Initial residual = 0.550401, Final residual = 0.00299025, No Iterations 3
GAMG:  Solving for pa, Initial residual = 0.999027, Final residual = 0.00559044, No Iterations 4
time step continuity errors : sum local = 4.68447e+141, global = 2.14602e+139, cumulative = 1.35406e+139
smoothSolver:  Solving for wa, Initial residual = 0.765537, Final residual = 9.5469e-05, No Iterations 6
smoothSolver:  Solving for ka, Initial residual = 0.856251, Final residual = 0.000129281, No Iterations 6
ExecutionTime = 858.4 s  ClockTime = 859 s

Iteration 193|500
Time = 1.386

smoothSolver:  Solving for Uax, Initial residual = 0.999127, Final residual = 0.000171603, No Iterations 6
smoothSolver:  Solving for Uay, Initial residual = 0.549963, Final residual = 0.00364654, No Iterations 3
smoothSolver:  Solving for Uaz, Initial residual = 0.550357, Final residual = 0.00299, No Iterations 3
GAMG:  Solving for pa, Initial residual = 0.999027, Final residual = 0.00559145, No Iterations 4
time step continuity errors : sum local = 7.99606e+141, global = -3.66916e+139, cumulative = -2.3151e+139
smoothSolver:  Solving for wa, Initial residual = 0.765512, Final residual = 9.54465e-05, No Iterations 6
smoothSolver:  Solving for ka, Initial residual = 0.856277, Final residual = 0.000129265, No Iterations 6
ExecutionTime = 859.26 s  ClockTime = 860 s

Iteration 194|500
Time = 1.388

smoothSolver:  Solving for Uax, Initial residual = 0.999126, Final residual = 0.0001716, No Iterations 6
smoothSolver:  Solving for Uay, Initial residual = 0.549858, Final residual = 0.00364448, No Iterations 3
smoothSolver:  Solving for Uaz, Initial residual = 0.550309, Final residual = 0.00298997, No Iterations 3
GAMG:  Solving for pa, Initial residual = 0.999026, Final residual = 0.00559246, No Iterations 4
time step continuity errors : sum local = 1.36487e+142, global = 6.27337e+139, cumulative = 3.95827e+139
smoothSolver:  Solving for wa, Initial residual = 0.765488, Final residual = 9.54242e-05, No Iterations 6
smoothSolver:  Solving for ka, Initial residual = 0.856304, Final residual = 0.00012925, No Iterations 6
ExecutionTime = 859.87 s  ClockTime = 860 s

Iteration 195|500
Time = 1.39

smoothSolver:  Solving for Uax, Initial residual = 0.999126, Final residual = 0.000171597, No Iterations 6
smoothSolver:  Solving for Uay, Initial residual = 0.549753, Final residual = 0.00364256, No Iterations 3
smoothSolver:  Solving for Uaz, Initial residual = 0.550259, Final residual = 0.00299067, No Iterations 3
GAMG:  Solving for pa, Initial residual = 0.999026, Final residual = 0.00559347, No Iterations 4
time step continuity errors : sum local = 2.32974e+142, global = -1.07263e+140, cumulative = -6.768e+139
smoothSolver:  Solving for wa, Initial residual = 0.765463, Final residual = 9.5402e-05, No Iterations 6
smoothSolver:  Solving for ka, Initial residual = 0.85633, Final residual = 0.000129234, No Iterations 6
ExecutionTime = 860.48 s  ClockTime = 861 s

Iteration 196|500
Time = 1.392

smoothSolver:  Solving for Uax, Initial residual = 0.999125, Final residual = 0.000171595, No Iterations 6
smoothSolver:  Solving for Uay, Initial residual = 0.549687, Final residual = 0.00364148, No Iterations 3
smoothSolver:  Solving for Uaz, Initial residual = 0.550288, Final residual = 0.00299756, No Iterations 3
GAMG:  Solving for pa, Initial residual = 0.999025, Final residual = 0.00559446, No Iterations 4
time step continuity errors : sum local = 3.97669e+142, global = 1.83446e+140, cumulative = 1.15766e+140
smoothSolver:  Solving for wa, Initial residual = 0.765439, Final residual = 9.53797e-05, No Iterations 6
smoothSolver:  Solving for ka, Initial residual = 0.856356, Final residual = 0.000129218, No Iterations 6
ExecutionTime = 861.1 s  ClockTime = 862 s

Iteration 197|500
Time = 1.394

smoothSolver:  Solving for Uax, Initial residual = 0.999125, Final residual = 0.000171592, No Iterations 6
smoothSolver:  Solving for Uay, Initial residual = 0.549536, Final residual = 0.00363604, No Iterations 3
smoothSolver:  Solving for Uaz, Initial residual = 0.549651, Final residual = 0.00298691, No Iterations 3
GAMG:  Solving for pa, Initial residual = 0.999025, Final residual = 0.00559552, No Iterations 4
time step continuity errors : sum local = 6.78802e+142, global = -3.13608e+140, cumulative = -1.97842e+140
smoothSolver:  Solving for wa, Initial residual = 0.765415, Final residual = 9.53575e-05, No Iterations 6
smoothSolver:  Solving for ka, Initial residual = 0.856383, Final residual = 0.000129202, No Iterations 6
ExecutionTime = 861.75 s  ClockTime = 862 s

Iteration 198|500
Time = 1.396

smoothSolver:  Solving for Uax, Initial residual = 0.999126, Final residual = 0.000171589, No Iterations 6
smoothSolver:  Solving for Uay, Initial residual = 0.54948, Final residual = 0.00363316, No Iterations 3
smoothSolver:  Solving for Uaz, Initial residual = 0.549559, Final residual = 0.00298364, No Iterations 3
GAMG:  Solving for pa, Initial residual = 0.999025, Final residual = 0.00559651, No Iterations 4
time step continuity errors : sum local = 1.15867e+143, global = 5.35981e+140, cumulative = 3.38139e+140
smoothSolver:  Solving for wa, Initial residual = 0.765391, Final residual = 9.53353e-05, No Iterations 6
smoothSolver:  Solving for ka, Initial residual = 0.856409, Final residual = 0.000129187, No Iterations 6
ExecutionTime = 862.37 s  ClockTime = 863 s

Iteration 199|500
Time = 1.398

smoothSolver:  Solving for Uax, Initial residual = 0.999125, Final residual = 0.000171586, No Iterations 6
smoothSolver:  Solving for Uay, Initial residual = 0.549412, Final residual = 0.00362988, No Iterations 3
smoothSolver:  Solving for Uaz, Initial residual = 0.54977, Final residual = 0.0029863, No Iterations 3
GAMG:  Solving for pa, Initial residual = 0.999025, Final residual = 0.00559749, No Iterations 4
time step continuity errors : sum local = 1.97777e+143, global = -9.16332e+140, cumulative = -5.78193e+140
smoothSolver:  Solving for wa, Initial residual = 0.765366, Final residual = 9.53128e-05, No Iterations 6
smoothSolver:  Solving for ka, Initial residual = 0.856435, Final residual = 0.000129171, No Iterations 6
ExecutionTime = 862.99 s  ClockTime = 864 s

Iteration 200|500
Time = 1.4

smoothSolver:  Solving for Uax, Initial residual = 0.999125, Final residual = 0.000171584, No Iterations 6
smoothSolver:  Solving for Uay, Initial residual = 0.549371, Final residual = 0.00362727, No Iterations 3
smoothSolver:  Solving for Uaz, Initial residual = 0.549813, Final residual = 0.0029873, No Iterations 3
GAMG:  Solving for pa, Initial residual = 0.999024, Final residual = 0.0055985, No Iterations 4
time step continuity errors : sum local = 3.37594e+143, global = 1.56653e+141, cumulative = 9.88338e+140
smoothSolver:  Solving for wa, Initial residual = 0.765339, Final residual = 9.52901e-05, No Iterations 6
smoothSolver:  Solving for ka, Initial residual = 0.85646, Final residual = 0.000129155, No Iterations 6
ExecutionTime = 863.65 s  ClockTime = 864 s

Iteration 201|500
Time = 1.402

smoothSolver:  Solving for Uax, Initial residual = 0.999124, Final residual = 0.000171581, No Iterations 6
smoothSolver:  Solving for Uay, Initial residual = 0.54925, Final residual = 0.00362374, No Iterations 3
smoothSolver:  Solving for Uaz, Initial residual = 0.549759, Final residual = 0.00298814, No Iterations 3
GAMG:  Solving for pa, Initial residual = 0.999024, Final residual = 0.00559949, No Iterations 4
time step continuity errors : sum local = 5.76252e+143, global = -2.67836e+141, cumulative = -1.69002e+141
smoothSolver:  Solving for wa, Initial residual = 0.765313, Final residual = 9.52677e-05, No Iterations 6
smoothSolver:  Solving for ka, Initial residual = 0.856486, Final residual = 0.000129139, No Iterations 6
ExecutionTime = 864.27 s  ClockTime = 865 s

Iteration 202|500
Time = 1.404

smoothSolver:  Solving for Uax, Initial residual = 0.999124, Final residual = 0.000171578, No Iterations 6
smoothSolver:  Solving for Uay, Initial residual = 0.549208, Final residual = 0.00362093, No Iterations 3
smoothSolver:  Solving for Uaz, Initial residual = 0.549729, Final residual = 0.00299025, No Iterations 3
GAMG:  Solving for pa, Initial residual = 0.999024, Final residual = 0.00560049, No Iterations 4
time step continuity errors : sum local = 9.83627e+143, global = 4.57926e+141, cumulative = 2.88924e+141
smoothSolver:  Solving for wa, Initial residual = 0.765288, Final residual = 9.52454e-05, No Iterations 6
smoothSolver:  Solving for ka, Initial residual = 0.856511, Final residual = 0.000129123, No Iterations 6
ExecutionTime = 864.88 s  ClockTime = 865 s

Iteration 203|500
Time = 1.406

smoothSolver:  Solving for Uax, Initial residual = 0.999124, Final residual = 0.000171576, No Iterations 6
smoothSolver:  Solving for Uay, Initial residual = 0.54909, Final residual = 0.00361766, No Iterations 3
smoothSolver:  Solving for Uaz, Initial residual = 0.549542, Final residual = 0.00299456, No Iterations 3
GAMG:  Solving for pa, Initial residual = 0.999023, Final residual = 0.00560148, No Iterations 4
time step continuity errors : sum local = 1.67899e+144, global = -7.83038e+141, cumulative = -4.94114e+141
smoothSolver:  Solving for wa, Initial residual = 0.765263, Final residual = 9.52232e-05, No Iterations 6
smoothSolver:  Solving for ka, Initial residual = 0.856537, Final residual = 0.000129107, No Iterations 6
ExecutionTime = 865.5 s  ClockTime = 866 s

Iteration 204|500
Time = 1.408

smoothSolver:  Solving for Uax, Initial residual = 0.999123, Final residual = 0.000171573, No Iterations 6
smoothSolver:  Solving for Uay, Initial residual = 0.549076, Final residual = 0.00361597, No Iterations 3
smoothSolver:  Solving for Uaz, Initial residual = 0.549183, Final residual = 0.00301001, No Iterations 3
GAMG:  Solving for pa, Initial residual = 0.999023, Final residual = 0.00560248, No Iterations 4
time step continuity errors : sum local = 2.86593e+144, global = 1.33984e+142, cumulative = 8.45725e+141
smoothSolver:  Solving for wa, Initial residual = 0.765238, Final residual = 9.52011e-05, No Iterations 6
smoothSolver:  Solving for ka, Initial residual = 0.856562, Final residual = 0.000129092, No Iterations 6
ExecutionTime = 866.11 s  ClockTime = 867 s

Iteration 205|500
Time = 1.41

smoothSolver:  Solving for Uax, Initial residual = 0.999123, Final residual = 0.00017157, No Iterations 6
smoothSolver:  Solving for Uay, Initial residual = 0.548976, Final residual = 0.00361332, No Iterations 3
smoothSolver:  Solving for Uaz, Initial residual = 0.54821, Final residual = 0.0029997, No Iterations 3
GAMG:  Solving for pa, Initial residual = 0.999023, Final residual = 0.00560342, No Iterations 4
time step continuity errors : sum local = 4.89197e+144, global = -2.28818e+142, cumulative = -1.44246e+142
smoothSolver:  Solving for wa, Initial residual = 0.765214, Final residual = 9.51792e-05, No Iterations 6
smoothSolver:  Solving for ka, Initial residual = 0.856588, Final residual = 0.000129076, No Iterations 6
ExecutionTime = 866.84 s  ClockTime = 867 s

Iteration 206|500
Time = 1.412

[0] [stack trace]
[0] =============
[0] #1  Foam::sigFpe::sigHandler(int) in ~/OpenFOAMv2312/platforms/linux64GccDPInt32Opt/lib/libOpenFOAM.so
[0] #2  ? in /lib/x86_64-linux-gnu/libc.so.6
[0] #3  Foam::tmp<Foam::GeometricField<Foam::typeOfMag<Foam::Vector<double> >::type, Foam::fvsPatchField, Foam::surfaceMesh> > Foam::mag<Foam::Vector<double>, Foam::fvsPatchField, Foam::surfaceMesh>(Foam::GeometricField<Foam::Vector<double>, Foam::fvsPatchField, Foam::surfaceMesh> const&) in ~/OpenFOAMv2312/platforms/linux64GccDPInt32Opt/lib/libfiniteVolume.so
[0] #4  Foam::fv::limitedSnGrad<Foam::Vector<double> >::correction(Foam::GeometricField<Foam::Vector<double>, Foam::fvPatchField, Foam::volMesh> const&) const in ~/OpenFOAMv2312/platforms/linux64GccDPInt32Opt/lib/libfiniteVolume.so
[0] #5  Foam::fv::gaussLaplacianScheme<Foam::Vector<double>, double>::fvmLaplacian(Foam::GeometricField<double, Foam::fvsPatchField, Foam::surfaceMesh> const&, Foam::GeometricField<Foam::Vector<double>, Foam::fvPatchField, Foam::volMesh> const&) in ~/OpenFOAMv2312/platforms/linux64GccDPInt32Opt/lib/libfiniteVolume.so
[0] #6  Foam::tmp<Foam::fvMatrix<Foam::Vector<double> > > Foam::fvm::laplacian<Foam::Vector<double>, double>(Foam::GeometricField<double, Foam::fvPatchField, Foam::volMesh> const&, Foam::GeometricField<Foam::Vector<double>, Foam::fvPatchField, Foam::volMesh> const&) in ~/OpenFOAMv2312/platforms/linux64GccDPInt32Opt/lib/libincompressibleTurbulenceModels.so
[0] #7  Foam::incompressibleAdjoint::adjointRASModels::adjointkOmegaSST::divDevReff(Foam::GeometricField<Foam::Vector<double>, Foam::fvPatchField, Foam::volMesh>&) const in ~/OpenFOAMv2312/platforms/linux64GccDPInt32Opt/lib/libadjointOptimisation.so
[0] #8  Foam::adjointSimple::mainIter() in ~/OpenFOAMv2312/platforms/linux64GccDPInt32Opt/lib/libadjointOptimisation.so
[0] #9  Foam::adjointSimple::solveIter() in ~/OpenFOAMv2312/platforms/linux64GccDPInt32Opt/lib/libadjointOptimisation.so
[0] #10  Foam::adjointSimple::solve() in ~/OpenFOAMv2312/platforms/linux64GccDPInt32Opt/lib/libadjointOptimisation.so
[0] #11  Foam::adjointSolverManager::solveAdjointEquations() in ~/OpenFOAMv2312/platforms/linux64GccDPInt32Opt/lib/libadjointOptimisation.so
[0] #12  Foam::optimisationManager::solveAdjointEquations() in ~/OpenFOAMv2312/platforms/linux64GccDPInt32Opt/lib/libadjointOptimisation.so
[0] #13  ? in ~/OpenFOAMv2312/platforms/linux64GccDPInt32Opt/bin/adjointOptimisationFoam
[0] #14  ? in /lib/x86_64-linux-gnu/libc.so.6
[0] #15  __libc_start_main in /lib/x86_64-linux-gnu/libc.so.6
[0] #16  ? in ~/OpenFOAMv2312/platforms/linux64GccDPInt32Opt/bin/adjointOptimisationFoam
[0] =============
[DESKTOP:02006] *** Process received signal ***
[DESKTOP:02006] Signal: Floating point exception (8)
[DESKTOP:02006] Signal code:  (-6)
[DESKTOP:02006] Failing at address: 0x3e8000007d6
[DESKTOP:02006] [ 0] /lib/x86_64-linux-gnu/libc.so.6(+0x42520)[0x7f1221e5a520]
[DESKTOP:02006] [ 1] /lib/x86_64-linux-gnu/libc.so.6(pthread_kill+0x12c)[0x7f1221eae9fc]
[DESKTOP:02006] [ 2] /lib/x86_64-linux-gnu/libc.so.6(raise+0x16)[0x7f1221e5a476]
[DESKTOP:02006] [ 3] /lib/x86_64-linux-gnu/libc.so.6(+0x42520)[0x7f1221e5a520]
[DESKTOP:02006] [ 4] /home/user/OpenFOAMv2312/platforms/linux64GccDPInt32Opt/lib/libfiniteVolume.so(_ZN4Foam3magINS_6VectorIdEENS_13fvsPatchFieldENS_11surfaceMeshEEENS_3tmpINS_14GeometricFieldINS_9typeOfMagIT_E4typeET0_T1_EEEERKNS6_IS8_SB_SC_EE+0x21e)[0x7f1225d91a1e]
[DESKTOP:02006] [ 5] /home/user/OpenFOAMv2312/platforms/linux64GccDPInt32Opt/lib/libfiniteVolume.so(_ZNK4Foam2fv13limitedSnGradINS_6VectorIdEEE10correctionERKNS_14GeometricFieldIS3_NS_12fvPatchFieldENS_7volMeshEEE+0x1f4)[0x7f1227261884]
[DESKTOP:02006] [ 6] /home/user/OpenFOAMv2312/platforms/linux64GccDPInt32Opt/lib/libfiniteVolume.so(_ZN4Foam2fv20gaussLaplacianSchemeINS_6VectorIdEEdE12fvmLaplacianERKNS_14GeometricFieldIdNS_13fvsPatchFieldENS_11surfaceMeshEEERKNS5_IS3_NS_12fvPatchFieldENS_7volMeshEEE+0x3df)[0x7f122732203f]
[DESKTOP:02006] [ 7] /home/user/OpenFOAMv2312/platforms/linux64GccDPInt32Opt/lib/libincompressibleTurbulenceModels.so(_ZN4Foam3fvm9laplacianINS_6VectorIdEEdEENS_3tmpINS_8fvMatrixIT_EEEERKNS_14GeometricFieldIT0_NS_12fvPatchFieldENS_7volMeshEEERKNS9_IS6_SB_SC_EE+0x29b)[0x7f1223cddb5b]
[DESKTOP:02006] [ 8] /home/user/OpenFOAMv2312/platforms/linux64GccDPInt32Opt/lib/libadjointOptimisation.so(_ZNK4Foam21incompressibleAdjoint16adjointRASModels16adjointkOmegaSST10divDevReffERNS_14GeometricFieldINS_6VectorIdEENS_12fvPatchFieldENS_7volMeshEEE+0xf6)[0x7f122359b4f6]
[DESKTOP:02006] [ 9] /home/user/OpenFOAMv2312/platforms/linux64GccDPInt32Opt/lib/libadjointOptimisation.so(_ZN4Foam13adjointSimple8mainIterEv+0x1cf)[0x7f12233f386f]
[DESKTOP:02006] [10] /home/user/OpenFOAMv2312/platforms/linux64GccDPInt32Opt/lib/libadjointOptimisation.so(_ZN4Foam13adjointSimple9solveIterEv+0xbf)[0x7f12233eee9f]
[DESKTOP:02006] [11] /home/user/OpenFOAMv2312/platforms/linux64GccDPInt32Opt/lib/libadjointOptimisation.so(_ZN4Foam13adjointSimple5solveEv+0xab)[0x7f12233ed70b]
[DESKTOP:02006] [12] /home/user/OpenFOAMv2312/platforms/linux64GccDPInt32Opt/lib/libadjointOptimisation.so(_ZN4Foam20adjointSolverManager21solveAdjointEquationsEv+0x74)[0x7f1223402cc4]
[DESKTOP:02006] [13] /home/user/OpenFOAMv2312/platforms/linux64GccDPInt32Opt/lib/libadjointOptimisation.so(_ZN4Foam19optimisationManager21solveAdjointEquationsEv+0x4d)[0x7f12238de3bd]
[DESKTOP:02006] [14] adjointOptimisationFoam(+0x4b4e)[0x55d39d224b4e]
[DESKTOP:02006] [15] /lib/x86_64-linux-gnu/libc.so.6(+0x29d90)[0x7f1221e41d90]
[DESKTOP:02006] [16] /lib/x86_64-linux-gnu/libc.so.6(__libc_start_main+0x80)[0x7f1221e41e40]
[DESKTOP:02006] [17] adjointOptimisationFoam(+0x55e5)[0x55d39d2255e5]
[DESKTOP:02006] *** End of error message ***
--------------------------------------------------------------------------
Primary job  terminated normally, but 1 process returned
a non-zero exit code. Per user-direction, the job has been aborted.
--------------------------------------------------------------------------
--------------------------------------------------------------------------
mpirun noticed that process rank 0 with PID 0 on node DESKTOP exited on signal 8 (Floating point exception).
--------------------------------------------------------------------------
