/*---------------------------------------------------------------------------*\
| =========                 |                                                 |
| \\      /  F ield         | OpenFOAM: The Open Source CFD Toolbox           |
|  \\    /   O peration     | Version:  2312                                  |
|   \\  /    A nd           | Website:  www.openfoam.com                      |
|    \\/     M anipulation  |                                                 |
\*---------------------------------------------------------------------------*/
Build  : _1d8f0d55f7-20231221 OPENFOAM=2312 version=v2312
Arch   : "LSB;label=32;scalar=64"
Exec   : adjointOptimisationFoam -parallel
Date   : Mar 11 2024
Time   : 20:23:33
Host   : DESKTOP
PID    : 8223
I/O    : uncollated
Case   : /home/user/OF2312/DTCHullDoubleBody_AdjointOpti
nProcs : 8
Hosts  :
(
    (DESKTOP 8)
)
Pstream initialized with:
    floatTransfer      : false
    nProcsSimpleSum    : 0
    nonBlockingExchange: 0 (tuning: 0)
    exchange algorithm : 0
    commsType          : nonBlocking
    polling iterations : 0
trapFpe: Floating point exception trapping enabled (FOAM_SIGFPE).
fileModificationChecking : Monitoring run-time modified files using timeStampMaster (fileModificationSkew 5, maxFileModificationPolls 20)
allowSystemOperations : Allowing user-supplied system call operations

// * * * * * * * * * * * * * * * * * * * * * * * * * * * * * * * * * * * * * //
Create time

Create mesh for time = 0

optimisationManager type : steadyOptimisation
designVariables type : shape
shapeDesignVariables type : volumetricBSplines
displacementMethod type : volumetricBSplinesMotionSolver
Selecting motion solver: volumetricBSplinesMotionSolver
NURBS3DVolume type : cartesian
Using knots 
11
(
0
0
0
0
0.25
0.5
0.75
1
1
1
1
)

Using knots 
11
(
0
0
0
0
0.25
0.5
0.75
1
1
1
1
)

Using knots 
11
(
0
0
0
0
0.25
0.5
0.75
1
1
1
1
)

controlPointsDefinition type : fromFile
Reading control points from file 
Writing control point positions to file
Control Points bounds 
	X1 : (-0.315849 0.401836)
	X2 : (-0.425087 0.403263)
	X3 : (0.63635 1.31475)

Initially found 0 points inside control boxes
Mapping of mesh points to parametric space for box box ...
Found 0 to discard from morphing boxes
Keeping 0 parameterized points in boxes
	Mapping completed in 0 seconds
	Max iterations per point needed to compute parametric coordinates : 0
	Max difference between original mesh points and parameterized ones -1e+15
Disabling control 65 and variables (195, 196, 197) since they does not parameterize any mesh point
Disabling control 66 and variables (198, 199, 200) since they does not parameterize any mesh point
Disabling control 67 and variables (201, 202, 203) since they does not parameterize any mesh point
Disabling control 68 and variables (204, 205, 206) since they does not parameterize any mesh point
Disabling control 72 and variables (216, 217, 218) since they does not parameterize any mesh point
Disabling control 73 and variables (219, 220, 221) since they does not parameterize any mesh point
Disabling control 74 and variables (222, 223, 224) since they does not parameterize any mesh point
Disabling control 75 and variables (225, 226, 227) since they does not parameterize any mesh point
Disabling control 79 and variables (237, 238, 239) since they does not parameterize any mesh point
Disabling control 80 and variables (240, 241, 242) since they does not parameterize any mesh point
Disabling control 81 and variables (243, 244, 245) since they does not parameterize any mesh point
Disabling control 82 and variables (246, 247, 248) since they does not parameterize any mesh point
Disabling control 114 and variables (342, 343, 344) since they does not parameterize any mesh point
Disabling control 115 and variables (345, 346, 347) since they does not parameterize any mesh point
Disabling control 116 and variables (348, 349, 350) since they does not parameterize any mesh point
Disabling control 117 and variables (351, 352, 353) since they does not parameterize any mesh point
Disabling control 121 and variables (363, 364, 365) since they does not parameterize any mesh point
Disabling control 122 and variables (366, 367, 368) since they does not parameterize any mesh point
Disabling control 123 and variables (369, 370, 371) since they does not parameterize any mesh point
Disabling control 124 and variables (372, 373, 374) since they does not parameterize any mesh point
Disabling control 128 and variables (384, 385, 386) since they does not parameterize any mesh point
Disabling control 129 and variables (387, 388, 389) since they does not parameterize any mesh point
Disabling control 130 and variables (390, 391, 392) since they does not parameterize any mesh point
Disabling control 131 and variables (393, 394, 395) since they does not parameterize any mesh point
Disabling control 163 and variables (489, 490, 491) since they does not parameterize any mesh point
Disabling control 164 and variables (492, 493, 494) since they does not parameterize any mesh point
Disabling control 165 and variables (495, 496, 497) since they does not parameterize any mesh point
Disabling control 166 and variables (498, 499, 500) since they does not parameterize any mesh point
Disabling control 170 and variables (510, 511, 512) since they does not parameterize any mesh point
Disabling control 171 and variables (513, 514, 515) since they does not parameterize any mesh point
Disabling control 172 and variables (516, 517, 518) since they does not parameterize any mesh point
Disabling control 173 and variables (519, 520, 521) since they does not parameterize any mesh point
Disabling control 177 and variables (531, 532, 533) since they does not parameterize any mesh point
Disabling control 178 and variables (534, 535, 536) since they does not parameterize any mesh point
Disabling control 179 and variables (537, 538, 539) since they does not parameterize any mesh point
Disabling control 180 and variables (540, 541, 542) since they does not parameterize any mesh point
Disabling control 212 and variables (636, 637, 638) since they does not parameterize any mesh point
Disabling control 213 and variables (639, 640, 641) since they does not parameterize any mesh point
Disabling control 214 and variables (642, 643, 644) since they does not parameterize any mesh point
Disabling control 215 and variables (645, 646, 647) since they does not parameterize any mesh point
Disabling control 219 and variables (657, 658, 659) since they does not parameterize any mesh point
Disabling control 220 and variables (660, 661, 662) since they does not parameterize any mesh point
Disabling control 221 and variables (663, 664, 665) since they does not parameterize any mesh point
Disabling control 222 and variables (666, 667, 668) since they does not parameterize any mesh point
Disabling control 226 and variables (678, 679, 680) since they does not parameterize any mesh point
Disabling control 227 and variables (681, 682, 683) since they does not parameterize any mesh point
Disabling control 228 and variables (684, 685, 686) since they does not parameterize any mesh point
Disabling control 229 and variables (687, 688, 689) since they does not parameterize any mesh point
morphingBoxConstraint type : none
Selecting incompressible transport model Newtonian
Selecting turbulence model type RAS
Selecting RAS turbulence model kOmegaSST
Selecting patchDistMethod meshWave
RAS
{
    RASModel        kOmegaSST;
    turbulence      on;
    printCoeffs     on;
    alphaK1         0.85;
    alphaK2         1;
    alphaOmega1     0.5;
    alphaOmega2     0.856;
    gamma1          0.555556;
    gamma2          0.44;
    beta1           0.075;
    beta2           0.0828;
    betaStar        0.09;
    a1              0.31;
    b1              1;
    c1              10;
    F3              false;
    decayControl    false;
    kInf            0;
    omegaInf        0;
}

Creating references for RASModel variables : kOmegaSST
Allocating mean values of turbulence variables
Allocating Mean Primal Fields
No MRF models present

Found 1 adjoint solvers that allocate fields
Constructing objective functions 

Creating objective function : drag of type force
Selecting adjointRAS turbulence model adjointkOmegaSST
Updating primal-based fields of the adjoint turbulence model ...
ATCModel type standard
Zeroing ATC on 15627 cells

adjointSensitivity type : shapeFI
Found 0 adjoint solvers acting as single-sided constraints
Found 0 adjoint solvers acting as double-sided constraints
Found 1 active adjoint solvers
updateMethod type : conjugateGradient
lineSearch type : ArmijoConditions
stepUpdate type : bisection
No convergence criterion defined for optimsation
It will run for 600 optimisation cycles 

Feasibility threshold is 1e-06

Starting time loop


* * * * * * * * * * * * * * * * *
Optimisation cycle 1
* * * * * * * * * * * * * * * * *

Resetting mean fields to zero
Resetting mean turbulent fields to zero
Solving equations for solver op1

Iteration 1|4000
Time = 0.00025

smoothSolver:  Solving for Ux, Initial residual = 0.116982, Final residual = 0.00888903, No Iterations 1
smoothSolver:  Solving for Uy, Initial residual = 0.207775, Final residual = 0.0128654, No Iterations 1
smoothSolver:  Solving for Uz, Initial residual = 0.105933, Final residual = 0.00626059, No Iterations 1
GAMG:  Solving for p, Initial residual = 1, Final residual = 0.0099139, No Iterations 62
time step continuity errors : sum local = 2.31501e-10, global = -1.52777e-13, cumulative = -1.52777e-13
smoothSolver:  Solving for omega, Initial residual = 0.188979, Final residual = 0.0135049, No Iterations 1
smoothSolver:  Solving for k, Initial residual = 1, Final residual = 0.0747046, No Iterations 1

drag : 0.000669603
ExecutionTime = 1.01 s  ClockTime = 1 s

Iteration 2|4000
Time = 0.0005

smoothSolver:  Solving for Ux, Initial residual = 0.0599303, Final residual = 0.00510968, No Iterations 1
smoothSolver:  Solving for Uy, Initial residual = 0.0975762, Final residual = 0.00849755, No Iterations 1
smoothSolver:  Solving for Uz, Initial residual = 0.0357656, Final residual = 0.00268919, No Iterations 1
GAMG:  Solving for p, Initial residual = 0.391677, Final residual = 0.00383807, No Iterations 70
time step continuity errors : sum local = 1.76697e-10, global = -6.20521e-14, cumulative = -2.14829e-13
smoothSolver:  Solving for omega, Initial residual = 0.0993275, Final residual = 0.0093049, No Iterations 1
smoothSolver:  Solving for k, Initial residual = 0.315818, Final residual = 0.0295363, No Iterations 1

drag : 0.0010175
ExecutionTime = 1.67 s  ClockTime = 2 s

Iteration 3|4000
Time = 0.00075

smoothSolver:  Solving for Ux, Initial residual = 0.0301853, Final residual = 0.00266273, No Iterations 1
smoothSolver:  Solving for Uy, Initial residual = 0.0487242, Final residual = 0.00102798, No Iterations 2
smoothSolver:  Solving for Uz, Initial residual = 0.0143589, Final residual = 0.00136691, No Iterations 1
GAMG:  Solving for p, Initial residual = 0.191995, Final residual = 0.00191608, No Iterations 70
time step continuity errors : sum local = 1.50491e-10, global = -3.49958e-13, cumulative = -5.64787e-13
smoothSolver:  Solving for omega, Initial residual = 0.0587838, Final residual = 0.00188063, No Iterations 2
smoothSolver:  Solving for k, Initial residual = 0.1648, Final residual = 0.00531269, No Iterations 2

drag : 0.00142973
ExecutionTime = 2.34 s  ClockTime = 3 s

Iteration 4|4000
Time = 0.001

smoothSolver:  Solving for Ux, Initial residual = 0.0165349, Final residual = 0.00039903, No Iterations 2
smoothSolver:  Solving for Uy, Initial residual = 0.0301152, Final residual = 0.00294821, No Iterations 1
smoothSolver:  Solving for Uz, Initial residual = 0.00949559, Final residual = 0.000355705, No Iterations 2
GAMG:  Solving for p, Initial residual = 0.116719, Final residual = 0.00114233, No Iterations 69
time step continuity errors : sum local = 1.33624e-10, global = 6.29625e-13, cumulative = 6.48377e-14
smoothSolver:  Solving for omega, Initial residual = 0.0356211, Final residual = 0.00348743, No Iterations 1
smoothSolver:  Solving for k, Initial residual = 0.0972523, Final residual = 0.00962753, No Iterations 1

drag : 0.00171996
ExecutionTime = 3 s  ClockTime = 3 s

Iteration 5|4000
Time = 0.00125

smoothSolver:  Solving for Ux, Initial residual = 0.0137276, Final residual = 0.000357358, No Iterations 2
smoothSolver:  Solving for Uy, Initial residual = 0.0317557, Final residual = 0.00083252, No Iterations 2
smoothSolver:  Solving for Uz, Initial residual = 0.0113341, Final residual = 0.000372332, No Iterations 2
GAMG:  Solving for p, Initial residual = 0.0954146, Final residual = 0.000942111, No Iterations 66
time step continuity errors : sum local = 1.43663e-10, global = 1.91199e-13, cumulative = 2.56037e-13
smoothSolver:  Solving for omega, Initial residual = 0.0227776, Final residual = 0.000656261, No Iterations 2
smoothSolver:  Solving for k, Initial residual = 0.0608812, Final residual = 0.00191999, No Iterations 2

drag : 0.00181518
ExecutionTime = 3.66 s  ClockTime = 4 s

Iteration 6|4000
Time = 0.0015

smoothSolver:  Solving for Ux, Initial residual = 0.0123161, Final residual = 0.0002941, No Iterations 2
smoothSolver:  Solving for Uy, Initial residual = 0.0303867, Final residual = 0.000759611, No Iterations 2
smoothSolver:  Solving for Uz, Initial residual = 0.0114547, Final residual = 0.000327932, No Iterations 2
GAMG:  Solving for p, Initial residual = 0.0890013, Final residual = 0.000873059, No Iterations 63
time step continuity errors : sum local = 1.54952e-10, global = -1.06193e-14, cumulative = 2.45417e-13
smoothSolver:  Solving for omega, Initial residual = 0.0146645, Final residual = 0.00135869, No Iterations 1
smoothSolver:  Solving for k, Initial residual = 0.0387551, Final residual = 0.00382707, No Iterations 1

drag : 0.00173535
ExecutionTime = 4.29 s  ClockTime = 4 s

Iteration 7|4000
Time = 0.00175

smoothSolver:  Solving for Ux, Initial residual = 0.0100596, Final residual = 0.000241422, No Iterations 2
smoothSolver:  Solving for Uy, Initial residual = 0.025337, Final residual = 0.000629935, No Iterations 2
smoothSolver:  Solving for Uz, Initial residual = 0.00944164, Final residual = 0.000247049, No Iterations 2
GAMG:  Solving for p, Initial residual = 0.083474, Final residual = 0.000828059, No Iterations 61
time step continuity errors : sum local = 1.56631e-10, global = -3.70403e-13, cumulative = -1.24986e-13
smoothSolver:  Solving for omega, Initial residual = 0.00994479, Final residual = 0.000898335, No Iterations 1
smoothSolver:  Solving for k, Initial residual = 0.0255433, Final residual = 0.000686762, No Iterations 2

drag : 0.00157479
ExecutionTime = 4.92 s  ClockTime = 5 s

Iteration 8|4000
Time = 0.002

smoothSolver:  Solving for Ux, Initial residual = 0.0076385, Final residual = 0.000197067, No Iterations 2
smoothSolver:  Solving for Uy, Initial residual = 0.0191222, Final residual = 0.000503721, No Iterations 2
smoothSolver:  Solving for Uz, Initial residual = 0.00657818, Final residual = 0.000179119, No Iterations 2
GAMG:  Solving for p, Initial residual = 0.0797668, Final residual = 0.000781274, No Iterations 60
time step continuity errors : sum local = 1.48009e-10, global = 4.30779e-13, cumulative = 3.05793e-13
smoothSolver:  Solving for omega, Initial residual = 0.00689077, Final residual = 0.000573173, No Iterations 1
smoothSolver:  Solving for k, Initial residual = 0.0168, Final residual = 0.0014939, No Iterations 1

drag : 0.00142237
ExecutionTime = 5.53 s  ClockTime = 6 s

Iteration 9|4000
Time = 0.00225

smoothSolver:  Solving for Ux, Initial residual = 0.00576911, Final residual = 0.000161727, No Iterations 2
smoothSolver:  Solving for Uy, Initial residual = 0.014908, Final residual = 0.00044121, No Iterations 2
smoothSolver:  Solving for Uz, Initial residual = 0.00472945, Final residual = 0.000142713, No Iterations 2
GAMG:  Solving for p, Initial residual = 0.0773792, Final residual = 0.000773548, No Iterations 58
time step continuity errors : sum local = 1.41436e-10, global = 6.74512e-13, cumulative = 9.80305e-13
smoothSolver:  Solving for omega, Initial residual = 0.00489452, Final residual = 0.000370711, No Iterations 1
smoothSolver:  Solving for k, Initial residual = 0.0114012, Final residual = 0.000935152, No Iterations 1

drag : 0.00135398
ExecutionTime = 6.13 s  ClockTime = 6 s

Iteration 10|4000
Time = 0.0025

smoothSolver:  Solving for Ux, Initial residual = 0.00466821, Final residual = 0.000131772, No Iterations 2
smoothSolver:  Solving for Uy, Initial residual = 0.0153551, Final residual = 0.000449788, No Iterations 2
smoothSolver:  Solving for Uz, Initial residual = 0.00519865, Final residual = 0.000148586, No Iterations 2
GAMG:  Solving for p, Initial residual = 0.0765708, Final residual = 0.000757567, No Iterations 57
time step continuity errors : sum local = 1.31947e-10, global = -8.666e-13, cumulative = 1.13704e-13
smoothSolver:  Solving for omega, Initial residual = 0.00357353, Final residual = 0.00022884, No Iterations 1
smoothSolver:  Solving for k, Initial residual = 0.00788048, Final residual = 0.000578585, No Iterations 1

drag : 0.00139983
ExecutionTime = 6.72 s  ClockTime = 7 s

Iteration 11|4000
Time = 0.00275

smoothSolver:  Solving for Ux, Initial residual = 0.00398635, Final residual = 0.000104109, No Iterations 2
smoothSolver:  Solving for Uy, Initial residual = 0.0161388, Final residual = 0.000450371, No Iterations 2
smoothSolver:  Solving for Uz, Initial residual = 0.00579175, Final residual = 0.00015472, No Iterations 2
GAMG:  Solving for p, Initial residual = 0.0783964, Final residual = 0.000753959, No Iterations 56
time step continuity errors : sum local = 1.25867e-10, global = 1.22648e-12, cumulative = 1.34018e-12
smoothSolver:  Solving for omega, Initial residual = 0.00268245, Final residual = 0.000161807, No Iterations 1
smoothSolver:  Solving for k, Initial residual = 0.0055595, Final residual = 0.000361027, No Iterations 1

drag : 0.00154881
ExecutionTime = 7.3 s  ClockTime = 7 s

Iteration 12|4000
Time = 0.003

smoothSolver:  Solving for Ux, Initial residual = 0.00337322, Final residual = 7.98136e-05, No Iterations 2
smoothSolver:  Solving for Uy, Initial residual = 0.0151372, Final residual = 0.000407376, No Iterations 2
smoothSolver:  Solving for Uz, Initial residual = 0.00563164, Final residual = 0.000145215, No Iterations 2
GAMG:  Solving for p, Initial residual = 0.0786485, Final residual = 0.00076762, No Iterations 53
time step continuity errors : sum local = 1.25122e-10, global = 2.01445e-12, cumulative = 3.35463e-12
smoothSolver:  Solving for omega, Initial residual = 0.00203602, Final residual = 0.000114733, No Iterations 1
smoothSolver:  Solving for k, Initial residual = 0.00402462, Final residual = 0.000214118, No Iterations 1

drag : 0.00176175
ExecutionTime = 7.86 s  ClockTime = 8 s

Iteration 13|4000
Time = 0.00325

smoothSolver:  Solving for Ux, Initial residual = 0.00277234, Final residual = 5.99204e-05, No Iterations 2
smoothSolver:  Solving for Uy, Initial residual = 0.0128413, Final residual = 0.000337801, No Iterations 2
smoothSolver:  Solving for Uz, Initial residual = 0.00494418, Final residual = 0.000124049, No Iterations 2
GAMG:  Solving for p, Initial residual = 0.0750329, Final residual = 0.000719462, No Iterations 51
time step continuity errors : sum local = 1.16657e-10, global = 2.97943e-12, cumulative = 6.33406e-12
smoothSolver:  Solving for omega, Initial residual = 0.00158811, Final residual = 6.18311e-05, No Iterations 1
smoothSolver:  Solving for k, Initial residual = 0.00303063, Final residual = 0.000169444, No Iterations 1

drag : 0.00198981
ExecutionTime = 8.44 s  ClockTime = 9 s

Iteration 14|4000
Time = 0.0035

smoothSolver:  Solving for Ux, Initial residual = 0.00224992, Final residual = 4.53999e-05, No Iterations 2
smoothSolver:  Solving for Uy, Initial residual = 0.0106218, Final residual = 0.000269087, No Iterations 2
smoothSolver:  Solving for Uz, Initial residual = 0.00422696, Final residual = 0.000104393, No Iterations 2
GAMG:  Solving for p, Initial residual = 0.0696241, Final residual = 0.000690772, No Iterations 47
time step continuity errors : sum local = 1.12815e-10, global = 2.41738e-12, cumulative = 8.75144e-12
smoothSolver:  Solving for omega, Initial residual = 0.00121863, Final residual = 5.52684e-05, No Iterations 1
smoothSolver:  Solving for k, Initial residual = 0.0023136, Final residual = 0.00010427, No Iterations 1

drag : 0.00219035
ExecutionTime = 8.97 s  ClockTime = 9 s

Iteration 15|4000
Time = 0.00375

smoothSolver:  Solving for Ux, Initial residual = 0.00186958, Final residual = 3.59455e-05, No Iterations 2
smoothSolver:  Solving for Uy, Initial residual = 0.00946183, Final residual = 0.000945694, No Iterations 1
smoothSolver:  Solving for Uz, Initial residual = 0.00387321, Final residual = 8.69895e-05, No Iterations 2
GAMG:  Solving for p, Initial residual = 0.0646503, Final residual = 0.00063334, No Iterations 45
time step continuity errors : sum local = 1.04711e-10, global = 3.24634e-12, cumulative = 1.19978e-11
smoothSolver:  Solving for omega, Initial residual = 0.000961945, Final residual = 4.47325e-05, No Iterations 1
smoothSolver:  Solving for k, Initial residual = 0.00177338, Final residual = 7.1584e-05, No Iterations 1

drag : 0.00233717
ExecutionTime = 9.54 s  ClockTime = 10 s

Iteration 16|4000
Time = 0.004

smoothSolver:  Solving for Ux, Initial residual = 0.00157771, Final residual = 2.95883e-05, No Iterations 2
smoothSolver:  Solving for Uy, Initial residual = 0.00924707, Final residual = 0.000866022, No Iterations 1
smoothSolver:  Solving for Uz, Initial residual = 0.00368267, Final residual = 0.000335073, No Iterations 1
GAMG:  Solving for p, Initial residual = 0.0601396, Final residual = 0.000578798, No Iterations 44
time step continuity errors : sum local = 9.67854e-11, global = 2.92655e-12, cumulative = 1.49243e-11
smoothSolver:  Solving for omega, Initial residual = 0.000759474, Final residual = 3.1432e-05, No Iterations 1
smoothSolver:  Solving for k, Initial residual = 0.0013845, Final residual = 6.13945e-05, No Iterations 1

drag : 0.00242369
ExecutionTime = 10.2 s  ClockTime = 10 s

Iteration 17|4000
Time = 0.00425

smoothSolver:  Solving for Ux, Initial residual = 0.00133774, Final residual = 0.000131002, No Iterations 1
smoothSolver:  Solving for Uy, Initial residual = 0.00889647, Final residual = 0.000813431, No Iterations 1
smoothSolver:  Solving for Uz, Initial residual = 0.00351556, Final residual = 0.000311226, No Iterations 1
GAMG:  Solving for p, Initial residual = 0.0562587, Final residual = 0.000548221, No Iterations 44
time step continuity errors : sum local = 9.22913e-11, global = 2.27501e-12, cumulative = 1.71993e-11
smoothSolver:  Solving for omega, Initial residual = 0.000597711, Final residual = 2.79996e-05, No Iterations 1
smoothSolver:  Solving for k, Initial residual = 0.00110112, Final residual = 4.69768e-05, No Iterations 1

drag : 0.00245869
ExecutionTime = 10.75 s  ClockTime = 11 s

Iteration 18|4000
Time = 0.0045

smoothSolver:  Solving for Ux, Initial residual = 0.0011654, Final residual = 0.000112166, No Iterations 1
smoothSolver:  Solving for Uy, Initial residual = 0.00817033, Final residual = 0.00075255, No Iterations 1
smoothSolver:  Solving for Uz, Initial residual = 0.0032437, Final residual = 0.000275746, No Iterations 1
GAMG:  Solving for p, Initial residual = 0.0532803, Final residual = 0.000514766, No Iterations 45
time step continuity errors : sum local = 8.67977e-11, global = -1.31438e-12, cumulative = 1.5885e-11
smoothSolver:  Solving for omega, Initial residual = 0.000475663, Final residual = 2.35516e-05, No Iterations 1
smoothSolver:  Solving for k, Initial residual = 0.000875333, Final residual = 3.5805e-05, No Iterations 1

drag : 0.00245729
ExecutionTime = 11.3 s  ClockTime = 11 s

Iteration 19|4000
Time = 0.00475

smoothSolver:  Solving for Ux, Initial residual = 0.00102027, Final residual = 9.56867e-05, No Iterations 1
smoothSolver:  Solving for Uy, Initial residual = 0.00726057, Final residual = 0.000680717, No Iterations 1
smoothSolver:  Solving for Uz, Initial residual = 0.00291454, Final residual = 0.000237683, No Iterations 1
GAMG:  Solving for p, Initial residual = 0.0508681, Final residual = 0.000495692, No Iterations 45
time step continuity errors : sum local = 8.33788e-11, global = -7.48048e-13, cumulative = 1.51369e-11
smoothSolver:  Solving for omega, Initial residual = 0.000382381, Final residual = 1.90707e-05, No Iterations 1
smoothSolver:  Solving for k, Initial residual = 0.000696261, Final residual = 3.11795e-05, No Iterations 1

drag : 0.00243663
ExecutionTime = 11.81 s  ClockTime = 12 s

Iteration 20|4000
Time = 0.005

smoothSolver:  Solving for Ux, Initial residual = 0.000902677, Final residual = 8.21031e-05, No Iterations 1
smoothSolver:  Solving for Uy, Initial residual = 0.00648844, Final residual = 0.000610361, No Iterations 1
smoothSolver:  Solving for Uz, Initial residual = 0.00270193, Final residual = 0.000212049, No Iterations 1
GAMG:  Solving for p, Initial residual = 0.0485704, Final residual = 0.000469792, No Iterations 45
time step continuity errors : sum local = 7.86106e-11, global = -6.86895e-13, cumulative = 1.445e-11
smoothSolver:  Solving for omega, Initial residual = 0.000306894, Final residual = 1.67678e-05, No Iterations 1
smoothSolver:  Solving for k, Initial residual = 0.000557554, Final residual = 2.58247e-05, No Iterations 1

drag : 0.00241054
ExecutionTime = 12.33 s  ClockTime = 12 s

Iteration 21|4000
Time = 0.00525

smoothSolver:  Solving for Ux, Initial residual = 0.000803592, Final residual = 7.03374e-05, No Iterations 1
smoothSolver:  Solving for Uy, Initial residual = 0.00589506, Final residual = 0.000542188, No Iterations 1
smoothSolver:  Solving for Uz, Initial residual = 0.00259783, Final residual = 0.000200486, No Iterations 1
GAMG:  Solving for p, Initial residual = 0.0465357, Final residual = 0.000451749, No Iterations 45
time step continuity errors : sum local = 7.51346e-11, global = 8.70428e-13, cumulative = 1.53204e-11
smoothSolver:  Solving for omega, Initial residual = 0.000248013, Final residual = 1.43664e-05, No Iterations 1
smoothSolver:  Solving for k, Initial residual = 0.000447934, Final residual = 2.12341e-05, No Iterations 1

drag : 0.00238712
ExecutionTime = 12.84 s  ClockTime = 13 s

Iteration 22|4000
Time = 0.0055

smoothSolver:  Solving for Ux, Initial residual = 0.000721935, Final residual = 5.99813e-05, No Iterations 1
smoothSolver:  Solving for Uy, Initial residual = 0.00537613, Final residual = 0.000473691, No Iterations 1
smoothSolver:  Solving for Uz, Initial residual = 0.00250299, Final residual = 0.000190141, No Iterations 1
GAMG:  Solving for p, Initial residual = 0.0446084, Final residual = 0.000438036, No Iterations 45
time step continuity errors : sum local = 7.24195e-11, global = 1.31651e-12, cumulative = 1.6637e-11
smoothSolver:  Solving for omega, Initial residual = 0.000202391, Final residual = 1.22636e-05, No Iterations 1
smoothSolver:  Solving for k, Initial residual = 0.00035898, Final residual = 1.85188e-05, No Iterations 1

drag : 0.00236898
ExecutionTime = 13.37 s  ClockTime = 14 s

Iteration 23|4000
Time = 0.00575

smoothSolver:  Solving for Ux, Initial residual = 0.000640692, Final residual = 5.12741e-05, No Iterations 1
smoothSolver:  Solving for Uy, Initial residual = 0.00488663, Final residual = 0.000404961, No Iterations 1
smoothSolver:  Solving for Uz, Initial residual = 0.00234618, Final residual = 0.000174712, No Iterations 1
GAMG:  Solving for p, Initial residual = 0.0424951, Final residual = 0.000420339, No Iterations 45
time step continuity errors : sum local = 6.91459e-11, global = 1.5917e-12, cumulative = 1.82287e-11
smoothSolver:  Solving for omega, Initial residual = 0.00016643, Final residual = 1.0812e-05, No Iterations 1
smoothSolver:  Solving for k, Initial residual = 0.000289022, Final residual = 1.58304e-05, No Iterations 1

drag : 0.00235477
ExecutionTime = 13.9 s  ClockTime = 14 s

Iteration 24|4000
Time = 0.006

smoothSolver:  Solving for Ux, Initial residual = 0.000561269, Final residual = 4.3705e-05, No Iterations 1
smoothSolver:  Solving for Uy, Initial residual = 0.00444624, Final residual = 0.000348873, No Iterations 1
smoothSolver:  Solving for Uz, Initial residual = 0.00215634, Final residual = 0.0001581, No Iterations 1
GAMG:  Solving for p, Initial residual = 0.0404691, Final residual = 0.000390335, No Iterations 45
time step continuity errors : sum local = 6.39772e-11, global = -1.3195e-12, cumulative = 1.69092e-11
smoothSolver:  Solving for omega, Initial residual = 0.000138833, Final residual = 9.44697e-06, No Iterations 1
smoothSolver:  Solving for k, Initial residual = 0.000237514, Final residual = 1.36201e-05, No Iterations 1

drag : 0.00234098
ExecutionTime = 14.41 s  ClockTime = 15 s

Iteration 25|4000
Time = 0.00625

smoothSolver:  Solving for Ux, Initial residual = 0.00048954, Final residual = 3.72163e-05, No Iterations 1
smoothSolver:  Solving for Uy, Initial residual = 0.00407842, Final residual = 0.000310174, No Iterations 1
smoothSolver:  Solving for Uz, Initial residual = 0.00196651, Final residual = 0.000143133, No Iterations 1
GAMG:  Solving for p, Initial residual = 0.0384516, Final residual = 0.000379045, No Iterations 44
time step continuity errors : sum local = 6.19923e-11, global = 7.23045e-14, cumulative = 1.69815e-11
smoothSolver:  Solving for omega, Initial residual = 0.000117552, Final residual = 8.28992e-06, No Iterations 1
smoothSolver:  Solving for k, Initial residual = 0.000199577, Final residual = 1.21223e-05, No Iterations 1

drag : 0.002324
ExecutionTime = 14.94 s  ClockTime = 15 s

Iteration 26|4000
Time = 0.0065

smoothSolver:  Solving for Ux, Initial residual = 0.000424479, Final residual = 3.18956e-05, No Iterations 1
smoothSolver:  Solving for Uy, Initial residual = 0.0037871, Final residual = 0.000286353, No Iterations 1
smoothSolver:  Solving for Uz, Initial residual = 0.00180094, Final residual = 0.000131572, No Iterations 1
GAMG:  Solving for p, Initial residual = 0.0363854, Final residual = 0.000348119, No Iterations 43
time step continuity errors : sum local = 5.68798e-11, global = -7.82977e-13, cumulative = 1.61985e-11
smoothSolver:  Solving for omega, Initial residual = 0.000101059, Final residual = 7.3754e-06, No Iterations 1
smoothSolver:  Solving for k, Initial residual = 0.000172093, Final residual = 1.08115e-05, No Iterations 1

drag : 0.00230147
ExecutionTime = 15.47 s  ClockTime = 16 s

Iteration 27|4000
Time = 0.00675

smoothSolver:  Solving for Ux, Initial residual = 0.000374242, Final residual = 2.76044e-05, No Iterations 1
smoothSolver:  Solving for Uy, Initial residual = 0.00351495, Final residual = 0.000271506, No Iterations 1
smoothSolver:  Solving for Uz, Initial residual = 0.00166685, Final residual = 0.0001213, No Iterations 1
GAMG:  Solving for p, Initial residual = 0.034365, Final residual = 0.000333025, No Iterations 41
time step continuity errors : sum local = 5.44069e-11, global = -4.84667e-13, cumulative = 1.57138e-11
smoothSolver:  Solving for omega, Initial residual = 8.8577e-05, Final residual = 6.53355e-06, No Iterations 1
smoothSolver:  Solving for k, Initial residual = 0.000151867, Final residual = 9.75589e-06, No Iterations 1

drag : 0.00227287
ExecutionTime = 15.96 s  ClockTime = 16 s

Iteration 28|4000
Time = 0.007

smoothSolver:  Solving for Ux, Initial residual = 0.000340449, Final residual = 2.43862e-05, No Iterations 1
smoothSolver:  Solving for Uy, Initial residual = 0.00321452, Final residual = 0.000254237, No Iterations 1
smoothSolver:  Solving for Uz, Initial residual = 0.00156066, Final residual = 0.000111185, No Iterations 1
GAMG:  Solving for p, Initial residual = 0.0325232, Final residual = 0.000312927, No Iterations 41
time step continuity errors : sum local = 5.11405e-11, global = 1.05108e-12, cumulative = 1.67649e-11
smoothSolver:  Solving for omega, Initial residual = 7.89444e-05, Final residual = 5.83303e-06, No Iterations 1
smoothSolver:  Solving for k, Initial residual = 0.000137253, Final residual = 8.90196e-06, No Iterations 1

drag : 0.00223922
ExecutionTime = 16.45 s  ClockTime = 17 s

Iteration 29|4000
Time = 0.00725

smoothSolver:  Solving for Ux, Initial residual = 0.000316425, Final residual = 2.20035e-05, No Iterations 1
smoothSolver:  Solving for Uy, Initial residual = 0.00288321, Final residual = 0.000228389, No Iterations 1
smoothSolver:  Solving for Uz, Initial residual = 0.00146237, Final residual = 0.000100639, No Iterations 1
GAMG:  Solving for p, Initial residual = 0.0308153, Final residual = 0.000298856, No Iterations 42
time step continuity errors : sum local = 4.8865e-11, global = -1.23644e-12, cumulative = 1.55285e-11
smoothSolver:  Solving for omega, Initial residual = 7.1487e-05, Final residual = 5.25906e-06, No Iterations 1
smoothSolver:  Solving for k, Initial residual = 0.000126509, Final residual = 8.13475e-06, No Iterations 1

drag : 0.00220252
ExecutionTime = 16.97 s  ClockTime = 17 s

Iteration 30|4000
Time = 0.0075

smoothSolver:  Solving for Ux, Initial residual = 0.000295956, Final residual = 2.02351e-05, No Iterations 1
smoothSolver:  Solving for Uy, Initial residual = 0.00257394, Final residual = 0.00019906, No Iterations 1
smoothSolver:  Solving for Uz, Initial residual = 0.00137283, Final residual = 9.04707e-05, No Iterations 1
GAMG:  Solving for p, Initial residual = 0.0290808, Final residual = 0.000280063, No Iterations 43
time step continuity errors : sum local = 4.58171e-11, global = 1.34452e-12, cumulative = 1.6873e-11
smoothSolver:  Solving for omega, Initial residual = 6.55937e-05, Final residual = 4.74284e-06, No Iterations 1
smoothSolver:  Solving for k, Initial residual = 0.000118127, Final residual = 7.45429e-06, No Iterations 1

drag : 0.00216501
ExecutionTime = 17.61 s  ClockTime = 18 s

Iteration 31|4000
Time = 0.00775

smoothSolver:  Solving for Ux, Initial residual = 0.000275959, Final residual = 1.86851e-05, No Iterations 1
smoothSolver:  Solving for Uy, Initial residual = 0.00230476, Final residual = 0.000171607, No Iterations 1
smoothSolver:  Solving for Uz, Initial residual = 0.00129119, Final residual = 8.05765e-05, No Iterations 1
GAMG:  Solving for p, Initial residual = 0.0274941, Final residual = 0.000267233, No Iterations 44
time step continuity errors : sum local = 4.37291e-11, global = -1.34246e-12, cumulative = 1.55305e-11
smoothSolver:  Solving for omega, Initial residual = 6.05076e-05, Final residual = 4.3155e-06, No Iterations 1
smoothSolver:  Solving for k, Initial residual = 0.000111508, Final residual = 6.88556e-06, No Iterations 1

drag : 0.00212857
ExecutionTime = 18.18 s  ClockTime = 18 s

Iteration 32|4000
Time = 0.008

smoothSolver:  Solving for Ux, Initial residual = 0.000255916, Final residual = 1.72072e-05, No Iterations 1
smoothSolver:  Solving for Uy, Initial residual = 0.00210648, Final residual = 0.000150734, No Iterations 1
smoothSolver:  Solving for Uz, Initial residual = 0.00122445, Final residual = 7.2956e-05, No Iterations 1
GAMG:  Solving for p, Initial residual = 0.0260449, Final residual = 0.000259168, No Iterations 44
time step continuity errors : sum local = 4.24146e-11, global = 1.44768e-12, cumulative = 1.69782e-11
smoothSolver:  Solving for omega, Initial residual = 5.55815e-05, Final residual = 3.93439e-06, No Iterations 1
smoothSolver:  Solving for k, Initial residual = 0.000106313, Final residual = 6.35228e-06, No Iterations 1

drag : 0.00209439
ExecutionTime = 18.72 s  ClockTime = 19 s

Iteration 33|4000
Time = 0.00825

smoothSolver:  Solving for Ux, Initial residual = 0.000234978, Final residual = 1.56913e-05, No Iterations 1
smoothSolver:  Solving for Uy, Initial residual = 0.0019883, Final residual = 0.000139135, No Iterations 1
smoothSolver:  Solving for Uz, Initial residual = 0.00116009, Final residual = 6.80705e-05, No Iterations 1
GAMG:  Solving for p, Initial residual = 0.0247188, Final residual = 0.000238906, No Iterations 44
time step continuity errors : sum local = 3.90968e-11, global = -1.21729e-12, cumulative = 1.57609e-11
smoothSolver:  Solving for omega, Initial residual = 5.15482e-05, Final residual = 3.61472e-06, No Iterations 1
smoothSolver:  Solving for k, Initial residual = 0.000102207, Final residual = 5.90215e-06, No Iterations 1

drag : 0.00206288
ExecutionTime = 19.23 s  ClockTime = 19 s

Iteration 34|4000
Time = 0.0085

smoothSolver:  Solving for Ux, Initial residual = 0.000213657, Final residual = 1.42447e-05, No Iterations 1
smoothSolver:  Solving for Uy, Initial residual = 0.0018953, Final residual = 0.000132333, No Iterations 1
smoothSolver:  Solving for Uz, Initial residual = 0.00109619, Final residual = 6.4562e-05, No Iterations 1
GAMG:  Solving for p, Initial residual = 0.0234907, Final residual = 0.00023094, No Iterations 43
time step continuity errors : sum local = 3.77836e-11, global = 9.28759e-13, cumulative = 1.66897e-11
smoothSolver:  Solving for omega, Initial residual = 4.83164e-05, Final residual = 3.38407e-06, No Iterations 1
smoothSolver:  Solving for k, Initial residual = 9.84405e-05, Final residual = 5.52686e-06, No Iterations 1

drag : 0.00203373
ExecutionTime = 19.76 s  ClockTime = 20 s

Iteration 35|4000
Time = 0.00875

smoothSolver:  Solving for Ux, Initial residual = 0.000193579, Final residual = 1.27959e-05, No Iterations 1
smoothSolver:  Solving for Uy, Initial residual = 0.00180486, Final residual = 0.000125983, No Iterations 1
smoothSolver:  Solving for Uz, Initial residual = 0.00104126, Final residual = 6.13951e-05, No Iterations 1
GAMG:  Solving for p, Initial residual = 0.0222485, Final residual = 0.000220489, No Iterations 43
time step continuity errors : sum local = 3.60507e-11, global = -1.46906e-13, cumulative = 1.65428e-11
smoothSolver:  Solving for omega, Initial residual = 4.58056e-05, Final residual = 3.18009e-06, No Iterations 1
smoothSolver:  Solving for k, Initial residual = 9.49506e-05, Final residual = 5.20986e-06, No Iterations 1

drag : 0.00200644
ExecutionTime = 20.28 s  ClockTime = 20 s

Iteration 36|4000
Time = 0.009

smoothSolver:  Solving for Ux, Initial residual = 0.000175097, Final residual = 1.14943e-05, No Iterations 1
smoothSolver:  Solving for Uy, Initial residual = 0.00170437, Final residual = 0.000117907, No Iterations 1
smoothSolver:  Solving for Uz, Initial residual = 0.000989294, Final residual = 5.77549e-05, No Iterations 1
GAMG:  Solving for p, Initial residual = 0.021205, Final residual = 0.00020272, No Iterations 44
time step continuity errors : sum local = 3.3113e-11, global = 3.05707e-13, cumulative = 1.68485e-11
smoothSolver:  Solving for omega, Initial residual = 4.37968e-05, Final residual = 2.99337e-06, No Iterations 1
smoothSolver:  Solving for k, Initial residual = 9.18554e-05, Final residual = 4.97848e-06, No Iterations 1

drag : 0.0019805
ExecutionTime = 20.79 s  ClockTime = 21 s

Iteration 37|4000
Time = 0.00925

smoothSolver:  Solving for Ux, Initial residual = 0.000159517, Final residual = 1.04076e-05, No Iterations 1
smoothSolver:  Solving for Uy, Initial residual = 0.0015761, Final residual = 0.000108031, No Iterations 1
smoothSolver:  Solving for Uz, Initial residual = 0.000937054, Final residual = 5.3982e-05, No Iterations 1
GAMG:  Solving for p, Initial residual = 0.020213, Final residual = 0.000193693, No Iterations 44
time step continuity errors : sum local = 3.15975e-11, global = 6.65237e-13, cumulative = 1.75137e-11
smoothSolver:  Solving for omega, Initial residual = 4.19527e-05, Final residual = 2.82622e-06, No Iterations 1
smoothSolver:  Solving for k, Initial residual = 8.89096e-05, Final residual = 4.74653e-06, No Iterations 1

drag : 0.0019556
ExecutionTime = 21.3 s  ClockTime = 21 s

Iteration 38|4000
Time = 0.0095

smoothSolver:  Solving for Ux, Initial residual = 0.000147095, Final residual = 9.51366e-06, No Iterations 1
smoothSolver:  Solving for Uy, Initial residual = 0.00143453, Final residual = 9.65513e-05, No Iterations 1
smoothSolver:  Solving for Uz, Initial residual = 0.000880457, Final residual = 4.95327e-05, No Iterations 1
GAMG:  Solving for p, Initial residual = 0.0192389, Final residual = 0.000182418, No Iterations 44
time step continuity errors : sum local = 2.97082e-11, global = -3.3033e-13, cumulative = 1.71834e-11
smoothSolver:  Solving for omega, Initial residual = 4.02038e-05, Final residual = 2.67415e-06, No Iterations 1
smoothSolver:  Solving for k, Initial residual = 8.60345e-05, Final residual = 4.52447e-06, No Iterations 1

drag : 0.00193164
ExecutionTime = 21.83 s  ClockTime = 22 s

Iteration 39|4000
Time = 0.00975

smoothSolver:  Solving for Ux, Initial residual = 0.000137524, Final residual = 8.85886e-06, No Iterations 1
smoothSolver:  Solving for Uy, Initial residual = 0.00129687, Final residual = 8.46599e-05, No Iterations 1
smoothSolver:  Solving for Uz, Initial residual = 0.000836394, Final residual = 4.54165e-05, No Iterations 1
GAMG:  Solving for p, Initial residual = 0.0183177, Final residual = 0.000177929, No Iterations 43
time step continuity errors : sum local = 2.89189e-11, global = 7.1746e-13, cumulative = 1.79008e-11
smoothSolver:  Solving for omega, Initial residual = 3.85193e-05, Final residual = 2.52954e-06, No Iterations 1
smoothSolver:  Solving for k, Initial residual = 8.32407e-05, Final residual = 4.32965e-06, No Iterations 1

drag : 0.00190868
ExecutionTime = 22.32 s  ClockTime = 22 s

Iteration 40|4000
Time = 0.01

smoothSolver:  Solving for Ux, Initial residual = 0.000129449, Final residual = 8.22935e-06, No Iterations 1
smoothSolver:  Solving for Uy, Initial residual = 0.00117734, Final residual = 7.43471e-05, No Iterations 1
smoothSolver:  Solving for Uz, Initial residual = 0.000798388, Final residual = 4.16676e-05, No Iterations 1
GAMG:  Solving for p, Initial residual = 0.0174518, Final residual = 0.000170269, No Iterations 41
time step continuity errors : sum local = 2.76145e-11, global = -6.83501e-13, cumulative = 1.72173e-11
smoothSolver:  Solving for omega, Initial residual = 3.67941e-05, Final residual = 2.3936e-06, No Iterations 1
smoothSolver:  Solving for k, Initial residual = 8.04524e-05, Final residual = 4.15365e-06, No Iterations 1

drag : 0.00188695
ExecutionTime = 22.82 s  ClockTime = 23 s

Iteration 41|4000
Time = 0.01025

smoothSolver:  Solving for Ux, Initial residual = 0.000121648, Final residual = 7.61337e-06, No Iterations 1
smoothSolver:  Solving for Uy, Initial residual = 0.00108377, Final residual = 6.76031e-05, No Iterations 1
smoothSolver:  Solving for Uz, Initial residual = 0.000763068, Final residual = 3.98721e-05, No Iterations 1
GAMG:  Solving for p, Initial residual = 0.0166965, Final residual = 0.000161787, No Iterations 41
time step continuity errors : sum local = 2.6187e-11, global = 1.08524e-12, cumulative = 1.83026e-11
smoothSolver:  Solving for omega, Initial residual = 3.4962e-05, Final residual = 2.25983e-06, No Iterations 1
smoothSolver:  Solving for k, Initial residual = 7.75352e-05, Final residual = 3.97952e-06, No Iterations 1

drag : 0.00186672
ExecutionTime = 23.3 s  ClockTime = 23 s

Iteration 42|4000
Time = 0.0105

smoothSolver:  Solving for Ux, Initial residual = 0.000113993, Final residual = 6.9962e-06, No Iterations 1
smoothSolver:  Solving for Uy, Initial residual = 0.0010186, Final residual = 6.38956e-05, No Iterations 1
smoothSolver:  Solving for Uz, Initial residual = 0.000736201, Final residual = 3.8822e-05, No Iterations 1
GAMG:  Solving for p, Initial residual = 0.0159585, Final residual = 0.000155423, No Iterations 40
time step continuity errors : sum local = 2.51125e-11, global = -1.13136e-12, cumulative = 1.71712e-11
smoothSolver:  Solving for omega, Initial residual = 3.31244e-05, Final residual = 2.12827e-06, No Iterations 1
smoothSolver:  Solving for k, Initial residual = 7.46775e-05, Final residual = 3.81503e-06, No Iterations 1

drag : 0.00184818
ExecutionTime = 23.78 s  ClockTime = 24 s

Iteration 43|4000
Time = 0.01075

smoothSolver:  Solving for Ux, Initial residual = 0.000107199, Final residual = 6.41905e-06, No Iterations 1
smoothSolver:  Solving for Uy, Initial residual = 0.000974733, Final residual = 6.17357e-05, No Iterations 1
smoothSolver:  Solving for Uz, Initial residual = 0.000712268, Final residual = 3.80323e-05, No Iterations 1
GAMG:  Solving for p, Initial residual = 0.015208, Final residual = 0.000149214, No Iterations 39
time step continuity errors : sum local = 2.40798e-11, global = 1.18227e-12, cumulative = 1.83535e-11
smoothSolver:  Solving for omega, Initial residual = 3.13143e-05, Final residual = 2.00567e-06, No Iterations 1
smoothSolver:  Solving for k, Initial residual = 7.18772e-05, Final residual = 3.67129e-06, No Iterations 1

drag : 0.00183149
ExecutionTime = 24.27 s  ClockTime = 24 s

Iteration 44|4000
Time = 0.011

smoothSolver:  Solving for Ux, Initial residual = 0.00010133, Final residual = 5.91201e-06, No Iterations 1
smoothSolver:  Solving for Uy, Initial residual = 0.000940443, Final residual = 5.98062e-05, No Iterations 1
smoothSolver:  Solving for Uz, Initial residual = 0.000691422, Final residual = 3.62611e-05, No Iterations 1
GAMG:  Solving for p, Initial residual = 0.0145114, Final residual = 0.000137622, No Iterations 40
time step continuity errors : sum local = 2.21921e-11, global = -9.97339e-13, cumulative = 1.73561e-11
smoothSolver:  Solving for omega, Initial residual = 2.96504e-05, Final residual = 1.89549e-06, No Iterations 1
smoothSolver:  Solving for k, Initial residual = 6.92539e-05, Final residual = 3.53803e-06, No Iterations 1

drag : 0.00181667
ExecutionTime = 24.75 s  ClockTime = 25 s

Iteration 45|4000
Time = 0.01125

smoothSolver:  Solving for Ux, Initial residual = 9.60357e-05, Final residual = 5.51172e-06, No Iterations 1
smoothSolver:  Solving for Uy, Initial residual = 0.000900812, Final residual = 5.70967e-05, No Iterations 1
smoothSolver:  Solving for Uz, Initial residual = 0.000664175, Final residual = 3.48564e-05, No Iterations 1
GAMG:  Solving for p, Initial residual = 0.0137849, Final residual = 0.000130936, No Iterations 42
time step continuity errors : sum local = 2.11057e-11, global = -8.13016e-13, cumulative = 1.65431e-11
smoothSolver:  Solving for omega, Initial residual = 2.81551e-05, Final residual = 1.7918e-06, No Iterations 1
smoothSolver:  Solving for k, Initial residual = 6.67411e-05, Final residual = 3.41165e-06, No Iterations 1

drag : 0.00180356
ExecutionTime = 25.26 s  ClockTime = 25 s

Iteration 46|4000
Time = 0.0115

smoothSolver:  Solving for Ux, Initial residual = 9.12386e-05, Final residual = 5.25087e-06, No Iterations 1
smoothSolver:  Solving for Uy, Initial residual = 0.000856874, Final residual = 5.39105e-05, No Iterations 1
smoothSolver:  Solving for Uz, Initial residual = 0.000640733, Final residual = 3.26482e-05, No Iterations 1
GAMG:  Solving for p, Initial residual = 0.0131701, Final residual = 0.000129629, No Iterations 43
time step continuity errors : sum local = 2.08924e-11, global = 7.38613e-13, cumulative = 1.72817e-11
smoothSolver:  Solving for omega, Initial residual = 2.68355e-05, Final residual = 1.70365e-06, No Iterations 1
smoothSolver:  Solving for k, Initial residual = 6.43289e-05, Final residual = 3.30091e-06, No Iterations 1

drag : 0.00179201
ExecutionTime = 25.77 s  ClockTime = 26 s

Iteration 47|4000
Time = 0.01175

smoothSolver:  Solving for Ux, Initial residual = 8.72738e-05, Final residual = 5.05595e-06, No Iterations 1
smoothSolver:  Solving for Uy, Initial residual = 0.00080653, Final residual = 5.00123e-05, No Iterations 1
smoothSolver:  Solving for Uz, Initial residual = 0.000615273, Final residual = 3.02004e-05, No Iterations 1
GAMG:  Solving for p, Initial residual = 0.0126185, Final residual = 0.000120049, No Iterations 44
time step continuity errors : sum local = 1.93518e-11, global = -2.91256e-13, cumulative = 1.69905e-11
smoothSolver:  Solving for omega, Initial residual = 2.56911e-05, Final residual = 1.62453e-06, No Iterations 1
smoothSolver:  Solving for k, Initial residual = 6.19846e-05, Final residual = 3.19467e-06, No Iterations 1

drag : 0.00178182
ExecutionTime = 26.28 s  ClockTime = 26 s

Iteration 48|4000
Time = 0.012

smoothSolver:  Solving for Ux, Initial residual = 8.36643e-05, Final residual = 4.90448e-06, No Iterations 1
smoothSolver:  Solving for Uy, Initial residual = 0.000752309, Final residual = 4.57032e-05, No Iterations 1
smoothSolver:  Solving for Uz, Initial residual = 0.000586734, Final residual = 2.83487e-05, No Iterations 1
GAMG:  Solving for p, Initial residual = 0.0120557, Final residual = 0.000119446, No Iterations 43
time step continuity errors : sum local = 1.926e-11, global = -4.00998e-13, cumulative = 1.65895e-11
smoothSolver:  Solving for omega, Initial residual = 2.47789e-05, Final residual = 1.55446e-06, No Iterations 1
smoothSolver:  Solving for k, Initial residual = 5.96541e-05, Final residual = 3.09202e-06, No Iterations 1

drag : 0.00177283
ExecutionTime = 26.78 s  ClockTime = 27 s

Iteration 49|4000
Time = 0.01225

smoothSolver:  Solving for Ux, Initial residual = 8.03772e-05, Final residual = 4.74843e-06, No Iterations 1
smoothSolver:  Solving for Uy, Initial residual = 0.000702724, Final residual = 4.19597e-05, No Iterations 1
smoothSolver:  Solving for Uz, Initial residual = 0.000563504, Final residual = 2.6707e-05, No Iterations 1
GAMG:  Solving for p, Initial residual = 0.0114852, Final residual = 0.000110665, No Iterations 43
time step continuity errors : sum local = 1.78487e-11, global = -5.6502e-13, cumulative = 1.60245e-11
smoothSolver:  Solving for omega, Initial residual = 2.40391e-05, Final residual = 1.49459e-06, No Iterations 1
smoothSolver:  Solving for k, Initial residual = 5.74097e-05, Final residual = 2.99989e-06, No Iterations 1

drag : 0.00176493
ExecutionTime = 27.29 s  ClockTime = 27 s

Iteration 50|4000
Time = 0.0125

smoothSolver:  Solving for Ux, Initial residual = 7.68223e-05, Final residual = 4.57949e-06, No Iterations 1
smoothSolver:  Solving for Uy, Initial residual = 0.00066122, Final residual = 3.91945e-05, No Iterations 1
smoothSolver:  Solving for Uz, Initial residual = 0.000539374, Final residual = 2.57447e-05, No Iterations 1
GAMG:  Solving for p, Initial residual = 0.0109285, Final residual = 0.00010616, No Iterations 42
time step continuity errors : sum local = 1.71246e-11, global = 6.0989e-13, cumulative = 1.66344e-11
smoothSolver:  Solving for omega, Initial residual = 2.3386e-05, Final residual = 1.43916e-06, No Iterations 1
smoothSolver:  Solving for k, Initial residual = 5.52458e-05, Final residual = 2.91131e-06, No Iterations 1

drag : 0.00175805
ExecutionTime = 27.78 s  ClockTime = 28 s

Iteration 51|4000
Time = 0.01275

smoothSolver:  Solving for Ux, Initial residual = 7.34889e-05, Final residual = 4.40959e-06, No Iterations 1
smoothSolver:  Solving for Uy, Initial residual = 0.000625947, Final residual = 3.76959e-05, No Iterations 1
smoothSolver:  Solving for Uz, Initial residual = 0.000517781, Final residual = 2.51092e-05, No Iterations 1
GAMG:  Solving for p, Initial residual = 0.0104383, Final residual = 0.000100586, No Iterations 41
time step continuity errors : sum local = 1.62255e-11, global = -7.10523e-13, cumulative = 1.59238e-11
smoothSolver:  Solving for omega, Initial residual = 2.28015e-05, Final residual = 1.38878e-06, No Iterations 1
smoothSolver:  Solving for k, Initial residual = 5.32012e-05, Final residual = 2.82817e-06, No Iterations 1

drag : 0.00175212
ExecutionTime = 28.26 s  ClockTime = 28 s

Iteration 52|4000
Time = 0.013

smoothSolver:  Solving for Ux, Initial residual = 7.00758e-05, Final residual = 4.24043e-06, No Iterations 1
smoothSolver:  Solving for Uy, Initial residual = 0.00059489, Final residual = 3.63339e-05, No Iterations 1
smoothSolver:  Solving for Uz, Initial residual = 0.00050162, Final residual = 2.45972e-05, No Iterations 1
GAMG:  Solving for p, Initial residual = 0.00997691, Final residual = 9.61332e-05, No Iterations 40
time step continuity errors : sum local = 1.55045e-11, global = 7.62317e-13, cumulative = 1.66861e-11
smoothSolver:  Solving for omega, Initial residual = 2.22656e-05, Final residual = 1.34364e-06, No Iterations 1
smoothSolver:  Solving for k, Initial residual = 5.13163e-05, Final residual = 2.75546e-06, No Iterations 1

drag : 0.00174713
ExecutionTime = 28.74 s  ClockTime = 29 s

Iteration 53|4000
Time = 0.01325

smoothSolver:  Solving for Ux, Initial residual = 6.71829e-05, Final residual = 4.09714e-06, No Iterations 1
smoothSolver:  Solving for Uy, Initial residual = 0.000568867, Final residual = 3.49188e-05, No Iterations 1
smoothSolver:  Solving for Uz, Initial residual = 0.000487346, Final residual = 2.42423e-05, No Iterations 1
GAMG:  Solving for p, Initial residual = 0.00954275, Final residual = 9.26441e-05, No Iterations 39
time step continuity errors : sum local = 1.49367e-11, global = -7.54247e-13, cumulative = 1.59319e-11
smoothSolver:  Solving for omega, Initial residual = 2.17674e-05, Final residual = 1.30121e-06, No Iterations 1
smoothSolver:  Solving for k, Initial residual = 4.95748e-05, Final residual = 2.6894e-06, No Iterations 1

drag : 0.00174303
ExecutionTime = 29.24 s  ClockTime = 29 s

Iteration 54|4000
Time = 0.0135

smoothSolver:  Solving for Ux, Initial residual = 6.47535e-05, Final residual = 3.96764e-06, No Iterations 1
smoothSolver:  Solving for Uy, Initial residual = 0.00054537, Final residual = 3.32723e-05, No Iterations 1
smoothSolver:  Solving for Uz, Initial residual = 0.000474357, Final residual = 2.36467e-05, No Iterations 1
GAMG:  Solving for p, Initial residual = 0.00909175, Final residual = 9.07825e-05, No Iterations 39
time step continuity errors : sum local = 1.46301e-11, global = -7.07492e-13, cumulative = 1.52244e-11
smoothSolver:  Solving for omega, Initial residual = 2.13097e-05, Final residual = 1.26182e-06, No Iterations 1
smoothSolver:  Solving for k, Initial residual = 4.80161e-05, Final residual = 2.62877e-06, No Iterations 1

drag : 0.00173975
ExecutionTime = 29.71 s  ClockTime = 30 s

Iteration 55|4000
Time = 0.01375

smoothSolver:  Solving for Ux, Initial residual = 6.27205e-05, Final residual = 3.856e-06, No Iterations 1
smoothSolver:  Solving for Uy, Initial residual = 0.000519467, Final residual = 3.14281e-05, No Iterations 1
smoothSolver:  Solving for Uz, Initial residual = 0.000460548, Final residual = 2.30062e-05, No Iterations 1
GAMG:  Solving for p, Initial residual = 0.0086902, Final residual = 8.63803e-05, No Iterations 40
time step continuity errors : sum local = 1.39131e-11, global = 5.72446e-13, cumulative = 1.57969e-11
smoothSolver:  Solving for omega, Initial residual = 2.08683e-05, Final residual = 1.22429e-06, No Iterations 1
smoothSolver:  Solving for k, Initial residual = 4.659e-05, Final residual = 2.57452e-06, No Iterations 1

drag : 0.00173723
ExecutionTime = 30.19 s  ClockTime = 30 s

Iteration 56|4000
Time = 0.014

smoothSolver:  Solving for Ux, Initial residual = 6.07413e-05, Final residual = 3.76042e-06, No Iterations 1
smoothSolver:  Solving for Uy, Initial residual = 0.000493454, Final residual = 2.97383e-05, No Iterations 1
smoothSolver:  Solving for Uz, Initial residual = 0.000447002, Final residual = 2.21747e-05, No Iterations 1
GAMG:  Solving for p, Initial residual = 0.00830505, Final residual = 7.99938e-05, No Iterations 41
time step continuity errors : sum local = 1.28767e-11, global = -4.33629e-13, cumulative = 1.53632e-11
smoothSolver:  Solving for omega, Initial residual = 2.04171e-05, Final residual = 1.18898e-06, No Iterations 1
smoothSolver:  Solving for k, Initial residual = 4.5233e-05, Final residual = 2.52155e-06, No Iterations 1

drag : 0.00173534
ExecutionTime = 30.67 s  ClockTime = 31 s

Iteration 57|4000
Time = 0.01425

smoothSolver:  Solving for Ux, Initial residual = 5.91253e-05, Final residual = 3.67701e-06, No Iterations 1
smoothSolver:  Solving for Uy, Initial residual = 0.000468584, Final residual = 2.82445e-05, No Iterations 1
smoothSolver:  Solving for Uz, Initial residual = 0.000431497, Final residual = 2.13748e-05, No Iterations 1
GAMG:  Solving for p, Initial residual = 0.00794001, Final residual = 7.69933e-05, No Iterations 40
time step continuity errors : sum local = 1.23866e-11, global = 2.99331e-13, cumulative = 1.56626e-11
smoothSolver:  Solving for omega, Initial residual = 1.99477e-05, Final residual = 1.15585e-06, No Iterations 1
smoothSolver:  Solving for k, Initial residual = 4.39033e-05, Final residual = 2.46855e-06, No Iterations 1

drag : 0.00173397
ExecutionTime = 31.18 s  ClockTime = 31 s

Iteration 58|4000
Time = 0.0145

smoothSolver:  Solving for Ux, Initial residual = 5.75476e-05, Final residual = 3.60502e-06, No Iterations 1
smoothSolver:  Solving for Uy, Initial residual = 0.000447357, Final residual = 2.69835e-05, No Iterations 1
smoothSolver:  Solving for Uz, Initial residual = 0.000416888, Final residual = 2.0657e-05, No Iterations 1
GAMG:  Solving for p, Initial residual = 0.00759556, Final residual = 7.32806e-05, No Iterations 39
time step continuity errors : sum local = 1.17828e-11, global = -2.01335e-13, cumulative = 1.54612e-11
smoothSolver:  Solving for omega, Initial residual = 1.94645e-05, Final residual = 1.12355e-06, No Iterations 1
smoothSolver:  Solving for k, Initial residual = 4.25896e-05, Final residual = 2.41493e-06, No Iterations 1

drag : 0.00173301
ExecutionTime = 31.65 s  ClockTime = 32 s

Iteration 59|4000
Time = 0.01475

smoothSolver:  Solving for Ux, Initial residual = 5.59894e-05, Final residual = 3.52747e-06, No Iterations 1
smoothSolver:  Solving for Uy, Initial residual = 0.000427596, Final residual = 2.59336e-05, No Iterations 1
smoothSolver:  Solving for Uz, Initial residual = 0.000402855, Final residual = 2.00423e-05, No Iterations 1
GAMG:  Solving for p, Initial residual = 0.00727304, Final residual = 7.10133e-05, No Iterations 38
time step continuity errors : sum local = 1.14131e-11, global = 8.36223e-14, cumulative = 1.55448e-11
smoothSolver:  Solving for omega, Initial residual = 1.89802e-05, Final residual = 1.09158e-06, No Iterations 1
smoothSolver:  Solving for k, Initial residual = 4.12975e-05, Final residual = 2.36167e-06, No Iterations 1

drag : 0.00173237
ExecutionTime = 32.1 s  ClockTime = 32 s

Iteration 60|4000
Time = 0.015

smoothSolver:  Solving for Ux, Initial residual = 5.46749e-05, Final residual = 3.4519e-06, No Iterations 1
smoothSolver:  Solving for Uy, Initial residual = 0.000409047, Final residual = 2.51075e-05, No Iterations 1
smoothSolver:  Solving for Uz, Initial residual = 0.00038915, Final residual = 1.95439e-05, No Iterations 1
GAMG:  Solving for p, Initial residual = 0.00696534, Final residual = 6.71637e-05, No Iterations 38
time step continuity errors : sum local = 1.07906e-11, global = 3.08922e-13, cumulative = 1.58538e-11
smoothSolver:  Solving for omega, Initial residual = 1.84978e-05, Final residual = 1.06107e-06, No Iterations 1
smoothSolver:  Solving for k, Initial residual = 4.00318e-05, Final residual = 2.30668e-06, No Iterations 1

drag : 0.001732
ExecutionTime = 32.57 s  ClockTime = 33 s

Iteration 61|4000
Time = 0.01525

smoothSolver:  Solving for Ux, Initial residual = 5.32763e-05, Final residual = 3.38815e-06, No Iterations 1
smoothSolver:  Solving for Uy, Initial residual = 0.000393284, Final residual = 2.44638e-05, No Iterations 1
smoothSolver:  Solving for Uz, Initial residual = 0.000378004, Final residual = 1.91755e-05, No Iterations 1
GAMG:  Solving for p, Initial residual = 0.00664945, Final residual = 6.39862e-05, No Iterations 37
time step continuity errors : sum local = 1.02775e-11, global = 3.52358e-13, cumulative = 1.62061e-11
smoothSolver:  Solving for omega, Initial residual = 1.80257e-05, Final residual = 1.03138e-06, No Iterations 1
smoothSolver:  Solving for k, Initial residual = 3.88107e-05, Final residual = 2.25279e-06, No Iterations 1

drag : 0.00173189
ExecutionTime = 33.03 s  ClockTime = 33 s

Iteration 62|4000
Time = 0.0155

smoothSolver:  Solving for Ux, Initial residual = 5.1884e-05, Final residual = 3.3318e-06, No Iterations 1
smoothSolver:  Solving for Uy, Initial residual = 0.000379833, Final residual = 2.39888e-05, No Iterations 1
smoothSolver:  Solving for Uz, Initial residual = 0.000365544, Final residual = 1.88838e-05, No Iterations 1
GAMG:  Solving for p, Initial residual = 0.00634984, Final residual = 6.21127e-05, No Iterations 36
time step continuity errors : sum local = 9.97538e-12, global = -3.0166e-13, cumulative = 1.59045e-11
smoothSolver:  Solving for omega, Initial residual = 1.75627e-05, Final residual = 1.00259e-06, No Iterations 1
smoothSolver:  Solving for k, Initial residual = 3.76256e-05, Final residual = 2.20058e-06, No Iterations 1

drag : 0.00173197
ExecutionTime = 33.5 s  ClockTime = 34 s

Iteration 63|4000
Time = 0.01575

smoothSolver:  Solving for Ux, Initial residual = 5.06041e-05, Final residual = 3.27583e-06, No Iterations 1
smoothSolver:  Solving for Uy, Initial residual = 0.000367499, Final residual = 2.359e-05, No Iterations 1
smoothSolver:  Solving for Uz, Initial residual = 0.000357355, Final residual = 1.86215e-05, No Iterations 1
GAMG:  Solving for p, Initial residual = 0.00608652, Final residual = 5.91289e-05, No Iterations 36
time step continuity errors : sum local = 9.49642e-12, global = -2.65332e-13, cumulative = 1.56391e-11
smoothSolver:  Solving for omega, Initial residual = 1.71135e-05, Final residual = 9.74807e-07, No Iterations 1
smoothSolver:  Solving for k, Initial residual = 3.6484e-05, Final residual = 2.14936e-06, No Iterations 1

drag : 0.00173224
ExecutionTime = 33.95 s  ClockTime = 34 s

Iteration 64|4000
Time = 0.016

smoothSolver:  Solving for Ux, Initial residual = 4.94384e-05, Final residual = 3.22134e-06, No Iterations 1
smoothSolver:  Solving for Uy, Initial residual = 0.000355843, Final residual = 2.30426e-05, No Iterations 1
smoothSolver:  Solving for Uz, Initial residual = 0.000349625, Final residual = 1.83206e-05, No Iterations 1
GAMG:  Solving for p, Initial residual = 0.00583091, Final residual = 5.54484e-05, No Iterations 37
time step continuity errors : sum local = 8.90652e-12, global = -2.00854e-13, cumulative = 1.54383e-11
smoothSolver:  Solving for omega, Initial residual = 1.66689e-05, Final residual = 9.47323e-07, No Iterations 1
smoothSolver:  Solving for k, Initial residual = 3.53885e-05, Final residual = 2.09837e-06, No Iterations 1

drag : 0.00173268
ExecutionTime = 34.44 s  ClockTime = 35 s

Iteration 65|4000
Time = 0.01625

smoothSolver:  Solving for Ux, Initial residual = 4.84282e-05, Final residual = 3.16709e-06, No Iterations 1
smoothSolver:  Solving for Uy, Initial residual = 0.000345025, Final residual = 2.23571e-05, No Iterations 1
smoothSolver:  Solving for Uz, Initial residual = 0.000343844, Final residual = 1.79995e-05, No Iterations 1
GAMG:  Solving for p, Initial residual = 0.00557937, Final residual = 5.35575e-05, No Iterations 37
time step continuity errors : sum local = 8.6048e-12, global = -2.71324e-13, cumulative = 1.51669e-11
smoothSolver:  Solving for omega, Initial residual = 1.62285e-05, Final residual = 9.19307e-07, No Iterations 1
smoothSolver:  Solving for k, Initial residual = 3.43526e-05, Final residual = 2.04918e-06, No Iterations 1

drag : 0.00173326
ExecutionTime = 34.9 s  ClockTime = 35 s

Iteration 66|4000
Time = 0.0165

smoothSolver:  Solving for Ux, Initial residual = 4.74445e-05, Final residual = 3.1126e-06, No Iterations 1
smoothSolver:  Solving for Uy, Initial residual = 0.000334242, Final residual = 2.16296e-05, No Iterations 1
smoothSolver:  Solving for Uz, Initial residual = 0.000336439, Final residual = 1.76702e-05, No Iterations 1
GAMG:  Solving for p, Initial residual = 0.00535481, Final residual = 5.16289e-05, No Iterations 37
time step continuity errors : sum local = 8.29754e-12, global = -2.60467e-13, cumulative = 1.49065e-11
smoothSolver:  Solving for omega, Initial residual = 1.58008e-05, Final residual = 8.919e-07, No Iterations 1
smoothSolver:  Solving for k, Initial residual = 3.33853e-05, Final residual = 2.00184e-06, No Iterations 1

drag : 0.00173394
ExecutionTime = 35.36 s  ClockTime = 36 s

Iteration 67|4000
Time = 0.01675

smoothSolver:  Solving for Ux, Initial residual = 4.64242e-05, Final residual = 3.05632e-06, No Iterations 1
smoothSolver:  Solving for Uy, Initial residual = 0.000324007, Final residual = 2.0924e-05, No Iterations 1
smoothSolver:  Solving for Uz, Initial residual = 0.000328654, Final residual = 1.73288e-05, No Iterations 1
GAMG:  Solving for p, Initial residual = 0.00512374, Final residual = 5.09234e-05, No Iterations 36
time step continuity errors : sum local = 8.18706e-12, global = 2.66067e-13, cumulative = 1.51725e-11
smoothSolver:  Solving for omega, Initial residual = 1.53886e-05, Final residual = 8.66204e-07, No Iterations 1
smoothSolver:  Solving for k, Initial residual = 3.25021e-05, Final residual = 1.95606e-06, No Iterations 1

drag : 0.0017347
ExecutionTime = 35.82 s  ClockTime = 36 s

Iteration 68|4000
Time = 0.017

smoothSolver:  Solving for Ux, Initial residual = 4.54787e-05, Final residual = 2.9952e-06, No Iterations 1
smoothSolver:  Solving for Uy, Initial residual = 0.000314419, Final residual = 2.02508e-05, No Iterations 1
smoothSolver:  Solving for Uz, Initial residual = 0.000322232, Final residual = 1.70627e-05, No Iterations 1
GAMG:  Solving for p, Initial residual = 0.00489731, Final residual = 4.74112e-05, No Iterations 36
time step continuity errors : sum local = 7.62524e-12, global = 2.35991e-13, cumulative = 1.54085e-11
smoothSolver:  Solving for omega, Initial residual = 1.50028e-05, Final residual = 8.42743e-07, No Iterations 1
smoothSolver:  Solving for k, Initial residual = 3.17359e-05, Final residual = 1.91192e-06, No Iterations 1

drag : 0.00173547
ExecutionTime = 36.27 s  ClockTime = 36 s

Iteration 69|4000
Time = 0.01725

smoothSolver:  Solving for Ux, Initial residual = 4.44588e-05, Final residual = 2.92952e-06, No Iterations 1
smoothSolver:  Solving for Uy, Initial residual = 0.000304381, Final residual = 1.96557e-05, No Iterations 1
smoothSolver:  Solving for Uz, Initial residual = 0.000314437, Final residual = 1.68668e-05, No Iterations 1
GAMG:  Solving for p, Initial residual = 0.00467401, Final residual = 4.64247e-05, No Iterations 35
time step continuity errors : sum local = 7.46931e-12, global = -2.21045e-13, cumulative = 1.51875e-11
smoothSolver:  Solving for omega, Initial residual = 1.4658e-05, Final residual = 8.19508e-07, No Iterations 1
smoothSolver:  Solving for k, Initial residual = 3.11068e-05, Final residual = 1.87314e-06, No Iterations 1

drag : 0.00173621
ExecutionTime = 36.71 s  ClockTime = 37 s

Iteration 70|4000
Time = 0.0175

smoothSolver:  Solving for Ux, Initial residual = 4.34878e-05, Final residual = 2.86602e-06, No Iterations 1
smoothSolver:  Solving for Uy, Initial residual = 0.000294802, Final residual = 1.91331e-05, No Iterations 1
smoothSolver:  Solving for Uz, Initial residual = 0.000306518, Final residual = 1.67254e-05, No Iterations 1
GAMG:  Solving for p, Initial residual = 0.00447454, Final residual = 4.37697e-05, No Iterations 35
time step continuity errors : sum local = 7.04476e-12, global = -1.99466e-13, cumulative = 1.4988e-11
smoothSolver:  Solving for omega, Initial residual = 1.43369e-05, Final residual = 7.99342e-07, No Iterations 1
smoothSolver:  Solving for k, Initial residual = 3.05775e-05, Final residual = 1.84016e-06, No Iterations 1

drag : 0.00173689
ExecutionTime = 37.16 s  ClockTime = 37 s

Iteration 71|4000
Time = 0.01775

smoothSolver:  Solving for Ux, Initial residual = 4.25343e-05, Final residual = 2.81314e-06, No Iterations 1
smoothSolver:  Solving for Uy, Initial residual = 0.000285863, Final residual = 1.8743e-05, No Iterations 1
smoothSolver:  Solving for Uz, Initial residual = 0.000298712, Final residual = 1.66034e-05, No Iterations 1
GAMG:  Solving for p, Initial residual = 0.00428842, Final residual = 4.13625e-05, No Iterations 35
time step continuity errors : sum local = 6.65963e-12, global = -1.20168e-13, cumulative = 1.48679e-11
smoothSolver:  Solving for omega, Initial residual = 1.40242e-05, Final residual = 7.82984e-07, No Iterations 1
smoothSolver:  Solving for k, Initial residual = 3.01135e-05, Final residual = 1.81129e-06, No Iterations 1

drag : 0.0017375
ExecutionTime = 37.61 s  ClockTime = 38 s

Iteration 72|4000
Time = 0.018

smoothSolver:  Solving for Ux, Initial residual = 4.15665e-05, Final residual = 2.76838e-06, No Iterations 1
smoothSolver:  Solving for Uy, Initial residual = 0.000276922, Final residual = 1.83995e-05, No Iterations 1
smoothSolver:  Solving for Uz, Initial residual = 0.000291388, Final residual = 1.64749e-05, No Iterations 1
GAMG:  Solving for p, Initial residual = 0.0041113, Final residual = 3.97365e-05, No Iterations 35
time step continuity errors : sum local = 6.4e-12, global = 1.13553e-13, cumulative = 1.49814e-11
smoothSolver:  Solving for omega, Initial residual = 1.37326e-05, Final residual = 7.6586e-07, No Iterations 1
smoothSolver:  Solving for k, Initial residual = 2.9713e-05, Final residual = 1.78448e-06, No Iterations 1

drag : 0.00173803
ExecutionTime = 38.06 s  ClockTime = 38 s

Iteration 73|4000
Time = 0.01825

smoothSolver:  Solving for Ux, Initial residual = 4.06565e-05, Final residual = 2.72638e-06, No Iterations 1
smoothSolver:  Solving for Uy, Initial residual = 0.000268288, Final residual = 1.80725e-05, No Iterations 1
smoothSolver:  Solving for Uz, Initial residual = 0.000283412, Final residual = 1.63348e-05, No Iterations 1
GAMG:  Solving for p, Initial residual = 0.00393214, Final residual = 3.91399e-05, No Iterations 35
time step continuity errors : sum local = 6.30583e-12, global = -7.4294e-15, cumulative = 1.4974e-11
smoothSolver:  Solving for omega, Initial residual = 1.34595e-05, Final residual = 7.48541e-07, No Iterations 1
smoothSolver:  Solving for k, Initial residual = 2.93434e-05, Final residual = 1.76087e-06, No Iterations 1

drag : 0.00173847
ExecutionTime = 38.53 s  ClockTime = 39 s

Iteration 74|4000
Time = 0.0185

smoothSolver:  Solving for Ux, Initial residual = 3.97586e-05, Final residual = 2.6871e-06, No Iterations 1
smoothSolver:  Solving for Uy, Initial residual = 0.000259321, Final residual = 1.77493e-05, No Iterations 1
smoothSolver:  Solving for Uz, Initial residual = 0.000276319, Final residual = 1.6167e-05, No Iterations 1
GAMG:  Solving for p, Initial residual = 0.00376762, Final residual = 3.63462e-05, No Iterations 36
time step continuity errors : sum local = 5.85734e-12, global = -1.64902e-13, cumulative = 1.48091e-11
smoothSolver:  Solving for omega, Initial residual = 1.31983e-05, Final residual = 7.31776e-07, No Iterations 1
smoothSolver:  Solving for k, Initial residual = 2.89894e-05, Final residual = 1.74089e-06, No Iterations 1

drag : 0.00173885
ExecutionTime = 39.01 s  ClockTime = 39 s

Iteration 75|4000
Time = 0.01875

smoothSolver:  Solving for Ux, Initial residual = 3.89905e-05, Final residual = 2.64919e-06, No Iterations 1
smoothSolver:  Solving for Uy, Initial residual = 0.00025087, Final residual = 1.74044e-05, No Iterations 1
smoothSolver:  Solving for Uz, Initial residual = 0.000270246, Final residual = 1.59551e-05, No Iterations 1
GAMG:  Solving for p, Initial residual = 0.00360678, Final residual = 3.52378e-05, No Iterations 36
time step continuity errors : sum local = 5.68016e-12, global = -1.76334e-13, cumulative = 1.46327e-11
smoothSolver:  Solving for omega, Initial residual = 1.29406e-05, Final residual = 7.16173e-07, No Iterations 1
smoothSolver:  Solving for k, Initial residual = 2.86538e-05, Final residual = 1.72188e-06, No Iterations 1

drag : 0.00173917
ExecutionTime = 39.48 s  ClockTime = 40 s

Iteration 76|4000
Time = 0.019

smoothSolver:  Solving for Ux, Initial residual = 3.82151e-05, Final residual = 2.61847e-06, No Iterations 1
smoothSolver:  Solving for Uy, Initial residual = 0.000242974, Final residual = 1.70521e-05, No Iterations 1
smoothSolver:  Solving for Uz, Initial residual = 0.000264436, Final residual = 1.57389e-05, No Iterations 1
GAMG:  Solving for p, Initial residual = 0.00344992, Final residual = 3.44307e-05, No Iterations 36
time step continuity errors : sum local = 5.5512e-12, global = -1.82461e-13, cumulative = 1.44503e-11
smoothSolver:  Solving for omega, Initial residual = 1.26878e-05, Final residual = 7.01211e-07, No Iterations 1
smoothSolver:  Solving for k, Initial residual = 2.8333e-05, Final residual = 1.70227e-06, No Iterations 1

drag : 0.00173942
ExecutionTime = 39.98 s  ClockTime = 40 s

Iteration 77|4000
Time = 0.01925

smoothSolver:  Solving for Ux, Initial residual = 3.75084e-05, Final residual = 2.59073e-06, No Iterations 1
smoothSolver:  Solving for Uy, Initial residual = 0.000235374, Final residual = 1.67129e-05, No Iterations 1
smoothSolver:  Solving for Uz, Initial residual = 0.000258636, Final residual = 1.55425e-05, No Iterations 1
GAMG:  Solving for p, Initial residual = 0.0033081, Final residual = 3.21735e-05, No Iterations 37
time step continuity errors : sum local = 5.18815e-12, global = 1.74169e-13, cumulative = 1.46245e-11
smoothSolver:  Solving for omega, Initial residual = 1.24358e-05, Final residual = 6.872e-07, No Iterations 1
smoothSolver:  Solving for k, Initial residual = 2.80276e-05, Final residual = 1.68326e-06, No Iterations 1

drag : 0.00173961
ExecutionTime = 40.68 s  ClockTime = 41 s

Iteration 78|4000
Time = 0.0195

smoothSolver:  Solving for Ux, Initial residual = 3.69102e-05, Final residual = 2.56477e-06, No Iterations 1
smoothSolver:  Solving for Uy, Initial residual = 0.000228352, Final residual = 1.64206e-05, No Iterations 1
smoothSolver:  Solving for Uz, Initial residual = 0.00025369, Final residual = 1.53706e-05, No Iterations 1
GAMG:  Solving for p, Initial residual = 0.00316489, Final residual = 3.15396e-05, No Iterations 37
time step continuity errors : sum local = 5.08675e-12, global = 1.7596e-13, cumulative = 1.48004e-11
smoothSolver:  Solving for omega, Initial residual = 1.21836e-05, Final residual = 6.73975e-07, No Iterations 1
smoothSolver:  Solving for k, Initial residual = 2.77293e-05, Final residual = 1.66491e-06, No Iterations 1

drag : 0.00173973
ExecutionTime = 41.47 s  ClockTime = 42 s

Iteration 79|4000
Time = 0.01975

smoothSolver:  Solving for Ux, Initial residual = 3.63346e-05, Final residual = 2.5395e-06, No Iterations 1
smoothSolver:  Solving for Uy, Initial residual = 0.000221846, Final residual = 1.61222e-05, No Iterations 1
smoothSolver:  Solving for Uz, Initial residual = 0.000249041, Final residual = 1.52644e-05, No Iterations 1
GAMG:  Solving for p, Initial residual = 0.00303112, Final residual = 2.92733e-05, No Iterations 38
time step continuity errors : sum local = 4.7219e-12, global = -1.6367e-13, cumulative = 1.46367e-11
smoothSolver:  Solving for omega, Initial residual = 1.19321e-05, Final residual = 6.61156e-07, No Iterations 1
smoothSolver:  Solving for k, Initial residual = 2.74248e-05, Final residual = 1.64785e-06, No Iterations 1

drag : 0.00173978
ExecutionTime = 42.1 s  ClockTime = 42 s

Iteration 80|4000
Time = 0.02

smoothSolver:  Solving for Ux, Initial residual = 3.57819e-05, Final residual = 2.51339e-06, No Iterations 1
smoothSolver:  Solving for Uy, Initial residual = 0.00021619, Final residual = 1.58378e-05, No Iterations 1
smoothSolver:  Solving for Uz, Initial residual = 0.000244499, Final residual = 1.51898e-05, No Iterations 1
GAMG:  Solving for p, Initial residual = 0.00291258, Final residual = 2.84226e-05, No Iterations 38
time step continuity errors : sum local = 4.58533e-12, global = -1.60175e-13, cumulative = 1.44766e-11
smoothSolver:  Solving for omega, Initial residual = 1.16827e-05, Final residual = 6.48698e-07, No Iterations 1
smoothSolver:  Solving for k, Initial residual = 2.71155e-05, Final residual = 1.63114e-06, No Iterations 1

drag : 0.00173975
ExecutionTime = 42.67 s  ClockTime = 43 s

Iteration 81|4000
Time = 0.02025

smoothSolver:  Solving for Ux, Initial residual = 3.5239e-05, Final residual = 2.48712e-06, No Iterations 1
smoothSolver:  Solving for Uy, Initial residual = 0.000210661, Final residual = 1.5573e-05, No Iterations 1
smoothSolver:  Solving for Uz, Initial residual = 0.00024007, Final residual = 1.51226e-05, No Iterations 1
GAMG:  Solving for p, Initial residual = 0.00279794, Final residual = 2.7507e-05, No Iterations 38
time step continuity errors : sum local = 4.43827e-12, global = -1.56049e-13, cumulative = 1.43205e-11
smoothSolver:  Solving for omega, Initial residual = 1.14354e-05, Final residual = 6.36627e-07, No Iterations 1
smoothSolver:  Solving for k, Initial residual = 2.68037e-05, Final residual = 1.61529e-06, No Iterations 1

drag : 0.00173964
ExecutionTime = 43.32 s  ClockTime = 44 s

Iteration 82|4000
Time = 0.0205

smoothSolver:  Solving for Ux, Initial residual = 3.47335e-05, Final residual = 2.46089e-06, No Iterations 1
smoothSolver:  Solving for Uy, Initial residual = 0.000205636, Final residual = 1.53299e-05, No Iterations 1
smoothSolver:  Solving for Uz, Initial residual = 0.000235931, Final residual = 1.50536e-05, No Iterations 1
GAMG:  Solving for p, Initial residual = 0.00268826, Final residual = 2.65311e-05, No Iterations 38
time step continuity errors : sum local = 4.2815e-12, global = -1.49865e-13, cumulative = 1.41707e-11
smoothSolver:  Solving for omega, Initial residual = 1.11909e-05, Final residual = 6.24847e-07, No Iterations 1
smoothSolver:  Solving for k, Initial residual = 2.64838e-05, Final residual = 1.59979e-06, No Iterations 1

drag : 0.00173943
ExecutionTime = 43.93 s  ClockTime = 44 s

Iteration 83|4000
Time = 0.02075

smoothSolver:  Solving for Ux, Initial residual = 3.42215e-05, Final residual = 2.43388e-06, No Iterations 1
smoothSolver:  Solving for Uy, Initial residual = 0.000201043, Final residual = 1.50984e-05, No Iterations 1
smoothSolver:  Solving for Uz, Initial residual = 0.000231845, Final residual = 1.50014e-05, No Iterations 1
GAMG:  Solving for p, Initial residual = 0.00258149, Final residual = 2.55337e-05, No Iterations 38
time step continuity errors : sum local = 4.1213e-12, global = -1.42617e-13, cumulative = 1.4028e-11
smoothSolver:  Solving for omega, Initial residual = 1.09465e-05, Final residual = 6.13123e-07, No Iterations 1
smoothSolver:  Solving for k, Initial residual = 2.61595e-05, Final residual = 1.58512e-06, No Iterations 1

drag : 0.00173913
ExecutionTime = 44.5 s  ClockTime = 45 s

Iteration 84|4000
Time = 0.021

smoothSolver:  Solving for Ux, Initial residual = 3.36675e-05, Final residual = 2.40633e-06, No Iterations 1
smoothSolver:  Solving for Uy, Initial residual = 0.00019659, Final residual = 1.48784e-05, No Iterations 1
smoothSolver:  Solving for Uz, Initial residual = 0.000227471, Final residual = 1.49503e-05, No Iterations 1
GAMG:  Solving for p, Initial residual = 0.0024774, Final residual = 2.44027e-05, No Iterations 38
time step continuity errors : sum local = 3.93953e-12, global = -1.31624e-13, cumulative = 1.38964e-11
smoothSolver:  Solving for omega, Initial residual = 1.07033e-05, Final residual = 6.01996e-07, No Iterations 1
smoothSolver:  Solving for k, Initial residual = 2.58215e-05, Final residual = 1.5705e-06, No Iterations 1

drag : 0.00173873
ExecutionTime = 45.03 s  ClockTime = 45 s

Iteration 85|4000
Time = 0.02125

smoothSolver:  Solving for Ux, Initial residual = 3.3141e-05, Final residual = 2.37883e-06, No Iterations 1
smoothSolver:  Solving for Uy, Initial residual = 0.000192289, Final residual = 1.46769e-05, No Iterations 1
smoothSolver:  Solving for Uz, Initial residual = 0.000223058, Final residual = 1.49172e-05, No Iterations 1
GAMG:  Solving for p, Initial residual = 0.00237499, Final residual = 2.333e-05, No Iterations 38
[...]
time step continuity errors : sum local = 7.40509e-13, global = 9.28738e-16, cumulative = -2.12173e-12
smoothSolver:  Solving for wa, Initial residual = 7.62006e-07, Final residual = 3.40683e-08, No Iterations 1
smoothSolver:  Solving for ka, Initial residual = 1.92238e-06, Final residual = 9.90102e-08, No Iterations 1
ExecutionTime = 2632.84 s  ClockTime = 2635 s


adjS1 solution reached max. number of iterations 4000


* * * * * * * * * * * * * * * * *
Optimisation cycle 2
* * * * * * * * * * * * * * * * *

Adjoint solver adjS1
drag : 0
Weighted objective : 0

Using steepest descent for the first iteration
maxAllowedDisplacement/maxDisplacement of boundary	0.002/0
[0] [1] [2] [3] [4] [5] [6] [7] [stack trace]
[4] =============
[stack trace]
[0] =============
[stack trace]
[1] =============
[stack trace]
[2] =============
[stack trace]
[3] =============
[stack trace]
[7] =============
[stack trace]
[6] =============
[stack trace]
[5] =============
[2] #1[3] #1[6] #1[5] #1[7] #1  [4] #1[0] #1  [1] #1            Foam::sigFpe::sigHandler(int)Foam::sigFpe::sigHandler(int)Foam::sigFpe::sigHandler(int)Foam::sigFpe::sigHandler(int)Foam::sigFpe::sigHandler(int)Foam::sigFpe::sigHandler(int)Foam::sigFpe::sigHandler(int)Foam::sigFpe::sigHandler(int) in  in  in  in  in  in  in ~/OpenFOAMv2312/platforms/linux64GccDPInt32Opt/lib/libOpenFOAM.so
~/OpenFOAMv2312/platforms/linux64GccDPInt32Opt/lib/libOpenFOAM.so
~/OpenFOAMv2312/platforms/linux64GccDPInt32Opt/lib/libOpenFOAM.so
~/OpenFOAMv2312/platforms/linux64GccDPInt32Opt/lib/libOpenFOAM.so
~/OpenFOAMv2312/platforms/linux64GccDPInt32Opt/lib/libOpenFOAM.so
~/OpenFOAMv2312/platforms/linux64GccDPInt32Opt/lib/libOpenFOAM.so~/OpenFOAMv2312/platforms/linux64GccDPInt32Opt/lib/libOpenFOAM.so
[0] #[6] #
[7] #[3] #2  ?2  ?2  ?2  ?[1] #2  ?[2] #[5] #2  ?2  ? in ~/OpenFOAMv2312/platforms/linux64GccDPInt32Opt/lib/libOpenFOAM.so
[4] #2  ? in  in /lib/x86_64-linux-gnu/libc.so.6
 in /lib/x86_64-linux-gnu/libc.so.6
 in /lib/x86_64-linux-gnu/libc.so.6
/lib/x86_64-linux-gnu/libc.so.6
 in /lib/x86_64-linux-gnu/libc.so.6
 in /lib/x86_64-linux-gnu/libc.so.6
 in /lib/x86_64-linux-gnu/libc.so.6
[1] #3  [2] #3  [7] #3  Foam::morphingBoxConstraint::computeEta(Foam::Field<double>&, double)[6] #3  Foam::morphingBoxConstraint::computeEta(Foam::Field<double>&, double)[3] #3  Foam::morphingBoxConstraint::computeEta(Foam::Field<double>&, double)[0] #3  Foam::morphingBoxConstraint::computeEta(Foam::Field<double>&, double) in Foam::morphingBoxConstraint::computeEta(Foam::Field<double>&, double)[4] #3  Foam::morphingBoxConstraint::computeEta(Foam::Field<double>&, double)/lib/x86_64-linux-gnu/libc.so.6
Foam::morphingBoxConstraint::computeEta(Foam::Field<double>&, double)[5] #3  Foam::morphingBoxConstraint::computeEta(Foam::Field<double>&, double) in ~/OpenFOAMv2312/platforms/linux64GccDPInt32Opt/lib/libadjointOptimisation.so
 in ~/OpenFOAMv2312/platforms/linux64GccDPInt32Opt/lib/libadjointOptimisation.so
 in ~/OpenFOAMv2312/platforms/linux64GccDPInt32Opt/lib/libadjointOptimisation.so
 in  in  in ~/OpenFOAMv2312/platforms/linux64GccDPInt32Opt/lib/libadjointOptimisation.so
~/OpenFOAMv2312/platforms/linux64GccDPInt32Opt/lib/libadjointOptimisation.so
[4] #[1] #~/OpenFOAMv2312/platforms/linux64GccDPInt32Opt/lib/libadjointOptimisation.so4   in 
4  Foam::designVariablesUpdate::computeDirection()Foam::designVariablesUpdate::computeDirection()~/OpenFOAMv2312/platforms/linux64GccDPInt32Opt/lib/libadjointOptimisation.so
 in ~/OpenFOAMv2312/platforms/linux64GccDPInt32Opt/lib/libadjointOptimisation.so
[0] #4  Foam::designVariablesUpdate::computeDirection()[7] #4  Foam::designVariablesUpdate::computeDirection()[2] #4  Foam::designVariablesUpdate::computeDirection()[6] #4  Foam::designVariablesUpdate::computeDirection()[5] #4  [3] #4  Foam::designVariablesUpdate::computeDirection()Foam::designVariablesUpdate::computeDirection() in ~/OpenFOAMv2312/platforms/linux64GccDPInt32Opt/lib/libadjointOptimisation.so
 in ~/OpenFOAMv2312/platforms/linux64GccDPInt32Opt/lib/libadjointOptimisation.so
 in ~/OpenFOAMv2312/platforms/linux64GccDPInt32Opt/lib/libadjointOptimisation.so
 in ~/OpenFOAMv2312/platforms/linux64GccDPInt32Opt/lib/libadjointOptimisation.so
 in ~/OpenFOAMv2312/platforms/linux64GccDPInt32Opt/lib/libadjointOptimisation.so
 in ~/OpenFOAMv2312/platforms/linux64GccDPInt32Opt/lib/libadjointOptimisation.so
 in ~/OpenFOAMv2312/platforms/linux64GccDPInt32Opt/lib/libadjointOptimisation.so
[2] #5  [5] #5  Foam::optimisationManager::lineSearchUpdate()[0] #5  Foam::optimisationManager::lineSearchUpdate()[7] #5  Foam::optimisationManager::lineSearchUpdate()[4] #5  Foam::optimisationManager::lineSearchUpdate()Foam::optimisationManager::lineSearchUpdate()[3] #5  Foam::optimisationManager::lineSearchUpdate()[6] #5  Foam::optimisationManager::lineSearchUpdate() in ~/OpenFOAMv2312/platforms/linux64GccDPInt32Opt/lib/libadjointOptimisation.so
[1] #5  Foam::optimisationManager::lineSearchUpdate() in ~/OpenFOAMv2312/platforms/linux64GccDPInt32Opt/lib/libadjointOptimisation.so
[5] #6   in ~/OpenFOAMv2312/platforms/linux64GccDPInt32Opt/lib/libadjointOptimisation.so
[6] #6   in ~/OpenFOAMv2312/platforms/linux64GccDPInt32Opt/lib/libadjointOptimisation.so
[2] #6   in ~/OpenFOAMv2312/platforms/linux64GccDPInt32Opt/lib/libadjointOptimisation.so
[0] #6   in ~/OpenFOAMv2312/platforms/linux64GccDPInt32Opt/lib/libadjointOptimisation.so
[3] #6   in ~/OpenFOAMv2312/platforms/linux64GccDPInt32Opt/lib/libadjointOptimisation.so
[4] #6   in ~/OpenFOAMv2312/platforms/linux64GccDPInt32Opt/lib/libadjointOptimisation.so
[1] #6   in ~/OpenFOAMv2312/platforms/linux64GccDPInt32Opt/lib/libadjointOptimisation.so
[7] #6  ???????? in ~/OpenFOAMv2312/platforms/linux64GccDPInt32Opt/bin/adjointOptimisationFoam
 in ~/OpenFOAMv2312/platforms/linux64GccDPInt32Opt/bin/adjointOptimisationFoam
 in ~/OpenFOAMv2312/platforms/linux64GccDPInt32Opt/bin/adjointOptimisationFoam
[2] #7  ? in ~/OpenFOAMv2312/platforms/linux64GccDPInt32Opt/bin/adjointOptimisationFoam
 in ~/OpenFOAMv2312/platforms/linux64GccDPInt32Opt/bin/adjointOptimisationFoam
 in ~/OpenFOAMv2312/platforms/linux64GccDPInt32Opt/bin/adjointOptimisationFoam
 in ~/OpenFOAMv2312/platforms/linux64GccDPInt32Opt/bin/adjointOptimisationFoam
[3] #7  ?[0] #7  ?[1] #7  ?[4] #7  ?[6] #7  ?[5] #7  ? in ~/OpenFOAMv2312/platforms/linux64GccDPInt32Opt/bin/adjointOptimisationFoam
[7] #7  ? in /lib/x86_64-linux-gnu/libc.so.6
[5] #8   in /lib/x86_64-linux-gnu/libc.so.6
[4] #8   in /lib/x86_64-linux-gnu/libc.so.6
[2] #8   in /lib/x86_64-linux-gnu/libc.so.6
[0] #8  __libc_start_main__libc_start_main__libc_start_main__libc_start_main in /lib/x86_64-linux-gnu/libc.so.6
[6] #8  __libc_start_main in /lib/x86_64-linux-gnu/libc.so.6
[3] #8  __libc_start_main in /lib/x86_64-linux-gnu/libc.so.6
[1] #8  __libc_start_main in /lib/x86_64-linux-gnu/libc.so.6
[7] #8  __libc_start_main in /lib/x86_64-linux-gnu/libc.so.6
[0] #9   in /lib/x86_64-linux-gnu/libc.so.6
[6] #9   in /lib/x86_64-linux-gnu/libc.so.6
[3] #9   in /lib/x86_64-linux-gnu/libc.so.6
[1] #9   in /lib/x86_64-linux-gnu/libc.so.6
[2] #9   in /lib/x86_64-linux-gnu/libc.so.6
[4] #9  ? in /lib/x86_64-linux-gnu/libc.so.6
[5] #9   in /lib/x86_64-linux-gnu/libc.so.6
[7] #9  ?????? in ~/OpenFOAMv2312/platforms/linux64GccDPInt32Opt/bin/adjointOptimisationFoam
[0] =============
?[DESKTOP:08223] *** Process received signal ***
[DESKTOP:08223] Signal: Floating point exception (8)
[DESKTOP:08223] Signal code:  (-6)
[DESKTOP:08223] Failing at address: 0x3e80000201f
[DESKTOP:08223] [ 0] /lib/x86_64-linux-gnu/libc.so.6(+0x42520)[0x7f022dd32520]
[DESKTOP:08223] [ 1] /lib/x86_64-linux-gnu/libc.so.6(pthread_kill+0x12c)[0x7f022dd869fc]
[DESKTOP:08223] [ 2]  in /lib/x86_64-linux-gnu/libc.so.6(raise+0x16)[0x7f022dd32476]
[DESKTOP:08223] [ 3] ~/OpenFOAMv2312/platforms/linux64GccDPInt32Opt/bin/adjointOptimisationFoam
[3] =============
/lib/x86_64-linux-gnu/libc.so.6(+0x42520)[0x7f022dd32520]
[DESKTOP:08223] [ 4] [DESKTOP:08226] *** Process received signal ***
[DESKTOP:08226] Signal: Floating point exception (8)
[DESKTOP:08226] Signal code:  (-6)
[DESKTOP:08226] Failing at address: 0x3e800002022
[DESKTOP:08226] [ 0] /lib/x86_64-linux-gnu/libc.so.6(+0x42520)[0x7f58667dc520]
[DESKTOP:08226] [ 1] /lib/x86_64-linux-gnu/libc.so.6(pthread_kill+0x12c)[0x7f58668309fc]
[DESKTOP:08226] [ 2] /lib/x86_64-linux-gnu/libc.so.6(raise+0x16)[0x7f58667dc476]
[DESKTOP:08226] [ 3] /home/user/OpenFOAMv2312/platforms/linux64GccDPInt32Opt/lib/libadjointOptimisation.so(_ZN4Foam21morphingBoxConstraint10computeEtaERNS_5FieldIdEEd+0x228)[0x7f022f7918e8]
[DESKTOP:08223] [ 5] /lib/x86_64-linux-gnu/libc.so.6(+0x42520)[0x7f58667dc520]
[DESKTOP:08226] [ 4] /home/user/OpenFOAMv2312/platforms/linux64GccDPInt32Opt/lib/libadjointOptimisation.so(_ZN4Foam21designVariablesUpdate16computeDirectionEv+0x12c)[0x7f022f7b140c]
[DESKTOP:08223] [ 6] /home/user/OpenFOAMv2312/platforms/linux64GccDPInt32Opt/lib/libadjointOptimisation.so(_ZN4Foam21morphingBoxConstraint10computeEtaERNS_5FieldIdEEd+0x228)[0x7f586823b8e8]
[DESKTOP:08226] [ 5]  in ~/OpenFOAMv2312/platforms/linux64GccDPInt32Opt/bin/adjointOptimisationFoam in 
[1] =============
~/OpenFOAMv2312/platforms/linux64GccDPInt32Opt/bin/adjointOptimisationFoam
[2] =============
[DESKTOP:08224] *** Process received signal ***
[DESKTOP:08224] Signal: Floating point exception (8)
[DESKTOP:08224] Signal code:  (-6)
[DESKTOP:08224] Failing at address: 0x3e800002020
[DESKTOP:08224] [ 0] /home/user/OpenFOAMv2312/platforms/linux64GccDPInt32Opt/lib/libadjointOptimisation.so(_ZN4Foam19optimisationManager16lineSearchUpdateEv+0x4d)[0x7f022f7b7d0d]
[DESKTOP:08223] [ 7] adjointOptimisationFoam(+0x4b4e)[0x55bc8666db4e]
[DESKTOP:08223] [ 8] /lib/x86_64-linux-gnu/libc.so.6(+0x29d90)[0x7f022dd19d90]
[DESKTOP:08223] [ 9] /lib/x86_64-linux-gnu/libc.so.6(__libc_start_main+0x80)[0x7f022dd19e40]
[DESKTOP:08223] [10] adjointOptimisationFoam(+0x55e5)[0x55bc8666e5e5]
[DESKTOP:08223] *** End of error message ***
/home/user/OpenFOAMv2312/platforms/linux64GccDPInt32Opt/lib/libadjointOptimisation.so(_ZN4Foam21designVariablesUpdate16computeDirectionEv+0x12c)[0x7f586825b40c]
[DESKTOP:08226] [ 6] [DESKTOP:08225] *** Process received signal ***
[DESKTOP:08225] Signal: Floating point exception (8)
[DESKTOP:08225] Signal code:  (-6)
[DESKTOP:08225] Failing at address: 0x3e800002021
/lib/x86_64-linux-gnu/libc.so.6(+0x42520)[0x7f0ecbf17520]
[DESKTOP:08224] [ 1] [DESKTOP:08225] [ 0] /lib/x86_64-linux-gnu/libc.so.6(pthread_kill+0x12c)[0x7f0ecbf6b9fc]
[DESKTOP:08224] [ 2] /lib/x86_64-linux-gnu/libc.so.6(+0x42520)[0x7efe10014520]
[DESKTOP:08225] [ 1] /lib/x86_64-linux-gnu/libc.so.6(raise+0x16)[0x7f0ecbf17476]
[DESKTOP:08224] [ 3] /lib/x86_64-linux-gnu/libc.so.6(+0x42520)[0x7f0ecbf17520]
[DESKTOP:08224] [ 4] /lib/x86_64-linux-gnu/libc.so.6(pthread_kill+0x12c)[0x7efe100689fc]
[DESKTOP:08225] [ 2] /lib/x86_64-linux-gnu/libc.so.6(raise+0x16)[0x7efe10014476]
[DESKTOP:08225] [ 3] /lib/x86_64-linux-gnu/libc.so.6(+0x42520)[0x7efe10014520]
[DESKTOP:08225] [ 4] /home/user/OpenFOAMv2312/platforms/linux64GccDPInt32Opt/lib/libadjointOptimisation.so(_ZN4Foam19optimisationManager16lineSearchUpdateEv+0x4d)[0x7f5868261d0d]
[DESKTOP:08226] [ 7] adjointOptimisationFoam(+0x4b4e)[0x55f8b3e74b4e]
[DESKTOP:08226] [ 8] /lib/x86_64-linux-gnu/libc.so.6(+0x29d90)[0x7f58667c3d90]
[DESKTOP:08226] [ 9] /lib/x86_64-linux-gnu/libc.so.6(__libc_start_main+0x80)[0x7f58667c3e40]
[DESKTOP:08226] [10] adjointOptimisationFoam(+0x55e5)[0x55f8b3e755e5]
[DESKTOP:08226] *** End of error message ***
/home/user/OpenFOAMv2312/platforms/linux64GccDPInt32Opt/lib/libadjointOptimisation.so(_ZN4Foam21morphingBoxConstraint10computeEtaERNS_5FieldIdEEd+0x228)[0x7f0ecd9768e8]
[DESKTOP:08224] [ 5]  in ~/OpenFOAMv2312/platforms/linux64GccDPInt32Opt/bin/adjointOptimisationFoam
[6] =============
/home/user/OpenFOAMv2312/platforms/linux64GccDPInt32Opt/lib/libadjointOptimisation.so(_ZN4Foam21morphingBoxConstraint10computeEtaERNS_5FieldIdEEd+0x228)[0x7efe11a738e8]
[DESKTOP:08225] [ 5] [DESKTOP:08229] *** Process received signal ***
[DESKTOP:08229] Signal: Floating point exception (8)
[DESKTOP:08229] Signal code:  (-6)
[DESKTOP:08229] Failing at address: 0x3e800002025
/home/user/OpenFOAMv2312/platforms/linux64GccDPInt32Opt/lib/libadjointOptimisation.so(_ZN4Foam21designVariablesUpdate16computeDirectionEv+0x12c)[0x7f0ecd99640c]
[DESKTOP:08224] [ 6]  in ~/OpenFOAMv2312/platforms/linux64GccDPInt32Opt/bin/adjointOptimisationFoam/home/user/OpenFOAMv2312/platforms/linux64GccDPInt32Opt/lib/libadjointOptimisation.so(_ZN4Foam21designVariablesUpdate16computeDirectionEv+0x12c)[0x7efe11a9340c]
[DESKTOP:08225] [ 6] [DESKTOP:08229] [ 0] 
[4] =============
/lib/x86_64-linux-gnu/libc.so.6(+0x42520)[0x7fca886a6520]
[DESKTOP:08229] [ 1] /home/user/OpenFOAMv2312/platforms/linux64GccDPInt32Opt/lib/libadjointOptimisation.so(_ZN4Foam19optimisationManager16lineSearchUpdateEv+0x4d)[0x7f0ecd99cd0d]
[DESKTOP:08224] [ 7] adjointOptimisationFoam(+0x4b4e)[0x56421c82db4e]
[DESKTOP:08224] [ 8] /lib/x86_64-linux-gnu/libc.so.6(pthread_kill+0x12c)[0x7fca886fa9fc]
[DESKTOP:08229] [ 2] /lib/x86_64-linux-gnu/libc.so.6(+0x29d90)[0x7f0ecbefed90]
[DESKTOP:08224] [ 9] /lib/x86_64-linux-gnu/libc.so.6(raise+0x16)[0x7fca886a6476]
[DESKTOP:08229] [ 3] /lib/x86_64-linux-gnu/libc.so.6(__libc_start_main+0x80)[0x7f0ecbefee40]
[DESKTOP:08224] [10] adjointOptimisationFoam(+0x55e5)[0x56421c82e5e5]
/lib/x86_64-linux-gnu/libc.so.6(+0x42520)[0x7fca886a6520]
[DESKTOP:08229] [ 4] [DESKTOP:08224] *** End of error message ***
 in [DESKTOP:08227] *** Process received signal ***
[DESKTOP:08227] Signal: Floating point exception (8)
[DESKTOP:08227] Signal code:  (-6)
[DESKTOP:08227] Failing at address: 0x3e800002023
/home/user/OpenFOAMv2312/platforms/linux64GccDPInt32Opt/lib/libadjointOptimisation.so(_ZN4Foam19optimisationManager16lineSearchUpdateEv+0x4d)[0x7efe11a99d0d]
[DESKTOP:08225] [ 7] adjointOptimisationFoam(+0x4b4e)[0x5575fa1a8b4e]
[DESKTOP:08225] [ 8] ~/OpenFOAMv2312/platforms/linux64GccDPInt32Opt/bin/adjointOptimisationFoam
[5] =============
/lib/x86_64-linux-gnu/libc.so.6(+0x29d90)[0x7efe0fffbd90]
[DESKTOP:08225] [ 9] [DESKTOP:08227] [ 0] /lib/x86_64-linux-gnu/libc.so.6(__libc_start_main+0x80)[0x7efe0fffbe40]
[DESKTOP:08225] [10] adjointOptimisationFoam(+0x55e5)[0x5575fa1a95e5]
[DESKTOP:08225] *** End of error message ***
 in /lib/x86_64-linux-gnu/libc.so.6(+0x42520)[0x7f224588d520]
[DESKTOP:08227] [ 1] ~/OpenFOAMv2312/platforms/linux64GccDPInt32Opt/bin/adjointOptimisationFoam
/home/user/OpenFOAMv2312/platforms/linux64GccDPInt32Opt/lib/libadjointOptimisation.so(_ZN4Foam21morphingBoxConstraint10computeEtaERNS_5FieldIdEEd+0x228)[0x7fca8a1058e8]
[DESKTOP:08229] [ 5] [7] =============
/lib/x86_64-linux-gnu/libc.so.6(pthread_kill+0x12c)[0x7f22458e19fc]
[DESKTOP:08227] [ 2] /lib/x86_64-linux-gnu/libc.so.6(raise+0x16)[0x7f224588d476]
[DESKTOP:08227] [ 3] /lib/x86_64-linux-gnu/libc.so.6(+0x42520)[0x7f224588d520]
[DESKTOP:08227] [ 4] [DESKTOP:08228] *** Process received signal ***
[DESKTOP:08228] Signal: Floating point exception (8)
[DESKTOP:08228] Signal code:  (-6)
[DESKTOP:08228] Failing at address: 0x3e800002024
[DESKTOP:08230] *** Process received signal ***
[DESKTOP:08228] [ 0] [DESKTOP:08230] Signal: Floating point exception (8)
[DESKTOP:08230] Signal code:  (-6)
[DESKTOP:08230] Failing at address: 0x3e800002026
/home/user/OpenFOAMv2312/platforms/linux64GccDPInt32Opt/lib/libadjointOptimisation.so(_ZN4Foam21designVariablesUpdate16computeDirectionEv+0x12c)[0x7fca8a12540c]
[DESKTOP:08229] [ 6] /lib/x86_64-linux-gnu/libc.so.6(+0x42520)[0x7f1a956c3520]
[DESKTOP:08228] [ 1] [DESKTOP:08230] [ 0] /home/user/OpenFOAMv2312/platforms/linux64GccDPInt32Opt/lib/libadjointOptimisation.so(_ZN4Foam21morphingBoxConstraint10computeEtaERNS_5FieldIdEEd+0x228)[0x7f22472ec8e8]
[DESKTOP:08227] [ 5] /lib/x86_64-linux-gnu/libc.so.6(pthread_kill+0x12c)[0x7f1a957179fc]
[DESKTOP:08228] [ 2] /lib/x86_64-linux-gnu/libc.so.6(+0x42520)[0x7f7093ad6520]
[DESKTOP:08230] [ 1] /home/user/OpenFOAMv2312/platforms/linux64GccDPInt32Opt/lib/libadjointOptimisation.so(_ZN4Foam19optimisationManager16lineSearchUpdateEv+0x4d)[0x7fca8a12bd0d]
[DESKTOP:08229] [ 7] adjointOptimisationFoam(+0x4b4e)[0x561ceb386b4e]
[DESKTOP:08229] [ 8] /lib/x86_64-linux-gnu/libc.so.6(+0x29d90)[0x7fca8868dd90]
[DESKTOP:08229] [ 9] /lib/x86_64-linux-gnu/libc.so.6(raise+0x16)[0x7f1a956c3476]
[DESKTOP:08228] [ 3] /lib/x86_64-linux-gnu/libc.so.6(pthread_kill+0x12c)[0x7f7093b2a9fc]
[DESKTOP:08230] [ 2] /home/user/OpenFOAMv2312/platforms/linux64GccDPInt32Opt/lib/libadjointOptimisation.so(_ZN4Foam21designVariablesUpdate16computeDirectionEv+0x12c)[0x7f224730c40c]
[DESKTOP:08227] [ 6] /lib/x86_64-linux-gnu/libc.so.6(+0x42520)[0x7f1a956c3520]
[DESKTOP:08228] [ 4] /lib/x86_64-linux-gnu/libc.so.6(__libc_start_main+0x80)[0x7fca8868de40]
[DESKTOP:08229] [10] adjointOptimisationFoam(+0x55e5)[0x561ceb3875e5]
[DESKTOP:08229] *** End of error message ***
/lib/x86_64-linux-gnu/libc.so.6(raise+0x16)[0x7f7093ad6476]
[DESKTOP:08230] [ 3] /lib/x86_64-linux-gnu/libc.so.6(+0x42520)[0x7f7093ad6520]
[DESKTOP:08230] [ 4] /home/user/OpenFOAMv2312/platforms/linux64GccDPInt32Opt/lib/libadjointOptimisation.so(_ZN4Foam21morphingBoxConstraint10computeEtaERNS_5FieldIdEEd+0x228)[0x7f1a971228e8]
[DESKTOP:08228] [ 5] /home/user/OpenFOAMv2312/platforms/linux64GccDPInt32Opt/lib/libadjointOptimisation.so(_ZN4Foam19optimisationManager16lineSearchUpdateEv+0x4d)[0x7f2247312d0d]
[DESKTOP:08227] [ 7] adjointOptimisationFoam(+0x4b4e)[0x561ce515ab4e]
[DESKTOP:08227] [ 8] /lib/x86_64-linux-gnu/libc.so.6(+0x29d90)[0x7f2245874d90]
[DESKTOP:08227] [ 9] /lib/x86_64-linux-gnu/libc.so.6(__libc_start_main+0x80)[0x7f2245874e40]
[DESKTOP:08227] [10] adjointOptimisationFoam(+0x55e5)[0x561ce515b5e5]
[DESKTOP:08227] *** End of error message ***
/home/user/OpenFOAMv2312/platforms/linux64GccDPInt32Opt/lib/libadjointOptimisation.so(_ZN4Foam21morphingBoxConstraint10computeEtaERNS_5FieldIdEEd+0x228)[0x7f70955358e8]
[DESKTOP:08230] [ 5] /home/user/OpenFOAMv2312/platforms/linux64GccDPInt32Opt/lib/libadjointOptimisation.so(_ZN4Foam21designVariablesUpdate16computeDirectionEv+0x12c)[0x7f1a9714240c]
[DESKTOP:08228] [ 6] /home/user/OpenFOAMv2312/platforms/linux64GccDPInt32Opt/lib/libadjointOptimisation.so(_ZN4Foam21designVariablesUpdate16computeDirectionEv+0x12c)[0x7f709555540c]
[DESKTOP:08230] [ 6] /home/user/OpenFOAMv2312/platforms/linux64GccDPInt32Opt/lib/libadjointOptimisation.so(_ZN4Foam19optimisationManager16lineSearchUpdateEv+0x4d)[0x7f1a97148d0d]
[DESKTOP:08228] [ 7] adjointOptimisationFoam(+0x4b4e)[0x55fde53a0b4e]
[DESKTOP:08228] [ 8] /lib/x86_64-linux-gnu/libc.so.6(+0x29d90)[0x7f1a956aad90]
[DESKTOP:08228] [ 9] /lib/x86_64-linux-gnu/libc.so.6(__libc_start_main+0x80)[0x7f1a956aae40]
[DESKTOP:08228] [10] adjointOptimisationFoam(+0x55e5)[0x55fde53a15e5]
[DESKTOP:08228] *** End of error message ***
/home/user/OpenFOAMv2312/platforms/linux64GccDPInt32Opt/lib/libadjointOptimisation.so(_ZN4Foam19optimisationManager16lineSearchUpdateEv+0x4d)[0x7f709555bd0d]
[DESKTOP:08230] [ 7] adjointOptimisationFoam(+0x4b4e)[0x561864e87b4e]
[DESKTOP:08230] [ 8] /lib/x86_64-linux-gnu/libc.so.6(+0x29d90)[0x7f7093abdd90]
[DESKTOP:08230] [ 9] /lib/x86_64-linux-gnu/libc.so.6(__libc_start_main+0x80)[0x7f7093abde40]
[DESKTOP:08230] [10] adjointOptimisationFoam(+0x55e5)[0x561864e885e5]
[DESKTOP:08230] *** End of error message ***
--------------------------------------------------------------------------
Primary job  terminated normally, but 1 process returned
a non-zero exit code. Per user-direction, the job has been aborted.
--------------------------------------------------------------------------
--------------------------------------------------------------------------
mpirun noticed that process rank 0 with PID 0 on node DESKTOP exited on signal 8 (Floating point exception).
--------------------------------------------------------------------------
